
##########                                Name:     oleObject80.pdb
##########                DOCK_Rotatable_Bonds:                  14
##########                         Heavy_Atoms:                  51
##########                    Molecular_Weight:             703.283
##########                DOCK_Rotatable_Bonds:                  14
##########                       Formal_Charge:         0.000299793
##########                     HBond_Acceptors:                  10
##########                        HBond_Donors:                   3
##########                         Heavy_Atoms:                  51
##########                          Grid_Score:          -40.394489
##########                     Grid_vdw_energy:          -40.647640
##########                      Grid_es_energy:            0.253149
##########           Internal_energy_repulsive:           28.819029

@<TRIPOS>MOLECULE
oleObject80.pdb
 94 99 1 0 0
SMALL
NO_CHARGES


@<TRIPOS>ATOM
      1 C         -15.7243    0.6256   61.9799 C.ar    1  UNL        -0.0620
      2 C         -15.5703    1.4125   60.8298 C.ar    1  UNL        -0.0590
      3 C         -14.3861    1.3527   60.0696 C.ar    1  UNL        -0.0456
      4 C         -13.3358    0.4884   60.4709 C.ar    1  UNL        -0.0185
      5 C         -13.5077   -0.2993   61.6311 C.ar    1  UNL        -0.0565
      6 C         -14.6918   -0.2320   62.3798 C.ar    1  UNL        -0.0619
      7 C         -12.0269    0.4085   59.6648 C.3     1  UNL         0.0931
      8 C         -10.7709    0.2257   60.5353 C.ar    1  UNL         0.0683
      9 C         -10.2906    1.2644   61.3726 C.ar    1  UNL        -0.0272
     10 C          -9.1321    1.0286   62.1365 C.ar    1  UNL        -0.0559
     11 C          -8.4975   -0.2188   62.0495 C.ar    1  UNL        -0.0435
     12 C          -9.0451   -1.1932   61.2026 C.ar    1  UNL         0.0272
     13 N         -10.1523   -0.9772   60.4683 N.ar    1  UNL        -0.2587
     14 C         -10.9859    2.6178   61.4720 C.3     1  UNL        -0.0379
     15 N         -12.0847   -0.5246   58.5027 N.am    1  UNL        -0.2918
     16 C         -11.6303   -0.1190   57.2427 C.2     1  UNL         0.2180
     17 O         -10.9462    0.8841   57.1209 O.2     1  UNL        -0.2772
     18 C         -11.7266   -1.1509   56.0910 C.3     1  UNL         0.0385
     19 C         -10.4007   -1.9263   55.8943 C.3     1  UNL        -0.0289
     20 C          -9.3114   -1.0476   55.2457 C.3     1  UNL        -0.0010
     21 N          -9.7557   -0.4998   53.9462 N.4     1  UNL        -0.3010
     22 C         -11.0165    0.2745   54.0423 C.3     1  UNL        -0.0010
     23 C         -12.1522   -0.5159   54.7404 C.3     1  UNL        -0.0289
     24 C          -8.6579    0.2131   53.2560 C.3     1  UNL         0.0222
     25 C          -8.0733    1.3823   54.0750 C.3     1  UNL         0.0661
     26 O          -7.5987    2.3739   53.1468 O.3     1  UNL        -0.3432
     27 C          -6.2681    2.5279   52.8078 C.ar    1  UNL         0.0937
     28 C          -5.3303    3.0966   53.6934 C.ar    1  UNL        -0.0284
     29 C          -3.9871    3.2358   53.3070 C.ar    1  UNL        -0.0381
     30 C          -3.5543    2.7997   52.0430 C.ar    1  UNL         0.0319
     31 C          -4.4969    2.2520   51.1513 C.ar    1  UNL        -0.0194
     32 C          -5.8417    2.1118   51.5318 C.ar    1  UNL         0.0727
     33 CL         -6.9759    1.4200   50.3868 Cl      1  UNL        -0.0814
     34 N          -2.2160    2.9734   51.6950 N.pl3   1  UNL        -0.3136
     35 C          -1.5615    2.9039   50.4656 C.ar    1  UNL         0.0489
     36 C          -1.7338    1.7709   49.6509 C.ar    1  UNL         0.0488
     37 N          -1.1527    1.6342   48.4423 N.ar    1  UNL        -0.2543
     38 C          -0.3717    2.6220   47.9522 C.ar    1  UNL         0.0703
     39 C          -0.1623    3.8064   48.7054 C.ar    1  UNL        -0.0339
     40 C          -0.7643    3.9499   49.9657 C.ar    1  UNL        -0.0371
     41 C           0.2378    2.3991   46.5937 C.ar    1  UNL         0.0009
     42 C          -0.2439    1.3911   45.7182 C.ar    1  UNL        -0.0402
     43 C           0.3188    1.1720   44.4434 C.ar    1  UNL         0.0375
     44 C           1.3961    1.9824   44.0291 C.ar    1  UNL        -0.0496
     45 C           1.8958    2.9822   44.8751 C.ar    1  UNL        -0.0608
     46 C           1.3267    3.1869   46.1401 C.ar    1  UNL        -0.0528
     47 C          -0.2417    0.0808   43.5634 C.2     1  UNL         0.2403
     48 O           0.1746   -0.1296   42.4383 O.2     1  UNL        -0.2722
     49 N          -1.2613   -0.6914   44.0785 N.am    1  UNL        -0.3251
     50 C         -12.5590   -1.9024   58.7636 C.3     1  UNL         0.0037
     51 C         -14.2767    2.2290   58.8251 C.3     1  UNL        -0.0394
     52 H         -16.6425    0.6795   62.5580 H       1  UNL         0.0623
     53 H         -16.3788    2.0726   60.5283 H       1  UNL         0.0626
     54 H         -12.7269   -0.9782   61.9591 H       1  UNL         0.0627
     55 H         -14.8082   -0.8458   63.2684 H       1  UNL         0.0623
     56 H         -11.9131    1.4066   59.2343 H       1  UNL         0.0626
     57 H          -8.7292    1.7991   62.7878 H       1  UNL         0.0627
     58 H          -7.6021   -0.4273   62.6275 H       1  UNL         0.0639
     59 H          -8.5845   -2.1757   61.1084 H       1  UNL         0.0840
     60 H         -10.9029    3.1723   60.5289 H       1  UNL         0.0280
     61 H         -10.5456    3.2417   62.2597 H       1  UNL         0.0280
     62 H         -12.0512    2.5014   61.7066 H       1  UNL         0.0280
     63 H         -12.5109   -1.8696   56.3557 H       1  UNL         0.0402
     64 H         -10.5848   -2.7937   55.2473 H       1  UNL         0.0288
     65 H         -10.0344   -2.3230   56.8473 H       1  UNL         0.0288
     66 H          -8.4101   -1.6581   55.1052 H       1  UNL         0.0431
     67 H          -9.0542   -0.2275   55.9298 H       1  UNL         0.0431
     68 H         -11.3702    0.5533   53.0428 H       1  UNL         0.0431
     69 H         -10.8298    1.2058   54.5914 H       1  UNL         0.0431
     70 H         -12.4744   -1.3188   54.0647 H       1  UNL         0.0288
     71 H         -13.0238    0.1346   54.8872 H       1  UNL         0.0288
     72 H          -9.0342    0.6243   52.3102 H       1  UNL         0.0455
     73 H          -7.8515   -0.4906   53.0116 H       1  UNL         0.0455
     74 H          -7.2453    1.0288   54.7014 H       1  UNL         0.0586
     75 H          -8.8564    1.8061   54.7165 H       1  UNL         0.0586
     76 H          -5.6285    3.4355   54.6801 H       1  UNL         0.0652
     77 H          -3.2757    3.6770   53.9998 H       1  UNL         0.0644
     78 H          -4.1982    1.9516   50.1520 H       1  UNL         0.0659
     79 H          -1.6075    3.1798   52.4769 H       1  UNL         0.1528
     80 H          -2.3524    0.9375   49.9811 H       1  UNL         0.0861
     81 H           0.4654    4.6072   48.3302 H       1  UNL         0.0646
     82 H          -0.6239    4.8675   50.5282 H       1  UNL         0.0644
     83 H          -1.0596    0.7520   46.0379 H       1  UNL         0.0638
     84 H           1.8570    1.8470   43.0557 H       1  UNL         0.0631
     85 H           2.7265    3.6021   44.5495 H       1  UNL         0.0623
     86 H           1.7327    3.9742   46.7690 H       1  UNL         0.0630
     87 H          -1.6654   -1.4331   43.5227 H       1  UNL         0.1458
     88 H          -1.5934   -0.5039   45.0160 H       1  UNL         0.1458
     89 H         -12.9501   -2.0132   59.7804 H       1  UNL         0.0433
     90 H         -11.7345   -2.6147   58.6443 H       1  UNL         0.0433
     91 H         -13.3578   -2.1549   58.0552 H       1  UNL         0.0433
     92 H         -15.1973    2.7986   58.6473 H       1  UNL         0.0280
     93 H         -14.0931    1.6248   57.9284 H       1  UNL         0.0280
     94 H         -13.4597    2.9547   58.9208 H       1  UNL         0.0280
@<TRIPOS>BOND
     1     1     2   ar
     2     1     6   ar
     3     1    52    1
     4     2     3   ar
     5     2    53    1
     6     3     4   ar
     7     3    51    1
     8     4     5   ar
     9     4     7    1
    10     5     6   ar
    11     5    54    1
    12     6    55    1
    13     7     8    1
    14     7    15    1
    15     7    56    1
    16     8     9   ar
    17     8    13   ar
    18     9    10   ar
    19     9    14    1
    20    10    11   ar
    21    10    57    1
    22    11    12   ar
    23    11    58    1
    24    12    13   ar
    25    12    59    1
    26    14    60    1
    27    14    61    1
    28    14    62    1
    29    15    16   am
    30    15    50    1
    31    16    17    2
    32    16    18    1
    33    18    19    1
    34    18    23    1
    35    18    63    1
    36    19    20    1
    37    19    64    1
    38    19    65    1
    39    20    21    1
    40    20    66    1
    41    20    67    1
    42    21    22    1
    43    21    24    1
    44    22    23    1
    45    22    68    1
    46    22    69    1
    47    23    70    1
    48    23    71    1
    49    24    25    1
    50    24    72    1
    51    24    73    1
    52    25    26    1
    53    25    74    1
    54    25    75    1
    55    26    27    1
    56    27    28   ar
    57    27    32   ar
    58    28    29   ar
    59    28    76    1
    60    29    30   ar
    61    29    77    1
    62    30    31   ar
    63    30    34    1
    64    31    32   ar
    65    31    78    1
    66    32    33    1
    67    34    35    1
    68    34    79    1
    69    35    36   ar
    70    35    40   ar
    71    36    37   ar
    72    36    80    1
    73    37    38   ar
    74    38    39   ar
    75    38    41    1
    76    39    40   ar
    77    39    81    1
    78    40    82    1
    79    41    42   ar
    80    41    46   ar
    81    42    43   ar
    82    42    83    1
    83    43    44   ar
    84    43    47    1
    85    44    45   ar
    86    44    84    1
    87    45    46   ar
    88    45    85    1
    89    46    86    1
    90    47    48    2
    91    47    49   am
    92    49    87    1
    93    49    88    1
    94    50    89    1
    95    50    90    1
    96    50    91    1
    97    51    92    1
    98    51    93    1
    99    51    94    1
@<TRIPOS>SUBSTRUCTURE
     1 UNL         1 TEMP              0 ****  ****    0 ROOT


##########                                Name:    ZINC000546142192
##########                DOCK_Rotatable_Bonds:                  12
##########                         Heavy_Atoms:                  31
##########                    Molecular_Weight:             420.511
##########                DOCK_Rotatable_Bonds:                  12
##########                       Formal_Charge:          -0.0599997
##########                     HBond_Acceptors:                   7
##########                        HBond_Donors:                   2
##########                         Heavy_Atoms:                  31
##########                          Grid_Score:          -39.976223
##########                     Grid_vdw_energy:          -40.338848
##########                      Grid_es_energy:            0.362626
##########           Internal_energy_repulsive:           13.767650

@<TRIPOS>MOLECULE
ZINC000546142192
 59 61 1 0 0
SMALL
USER_CHARGES


@<TRIPOS>ATOM
      1 C1         -2.3806    1.7027   47.5266 C.3     1  ZINC000546142192    0.0300
      2 O2         -3.2421    2.3907   48.4715 O.3     1  ZINC000546142192   -0.3600
      3 C3         -3.1885    1.9874   49.7507 C.2     1  ZINC000546142192    0.4600
      4 O4         -2.2243    1.3802   50.1527 O.2     1  ZINC000546142192   -0.5100
      5 C5         -4.3308    2.2919   50.6852 C.3     1  ZINC000546142192   -0.0800
      6 H6         -4.3116    1.5938   51.5221 H       1  ZINC000546142192    0.1100
      7 C7         -4.1924    3.7221   51.2107 C.3     1  ZINC000546142192   -0.1500
      8 C8         -5.6560    2.1506   49.9336 C.3     1  ZINC000546142192   -0.0600
      9 C9         -6.6429    1.4017   50.7919 C.ar    1  ZINC000546142192   -0.1000
     10 C10        -6.4445    0.0599   51.0606 C.ar    1  ZINC000546142192   -0.0900
     11 C11        -7.3469   -0.6291   51.8472 C.ar    1  ZINC000546142192   -0.1200
     12 C12        -8.4541    0.0272   52.3683 C.ar    1  ZINC000546142192    0.1600
     13 N13        -9.3700   -0.6679   53.1661 N.am    1  ZINC000546142192   -0.6900
     14 C14        -9.2671   -0.6190   54.5090 C.2     1  ZINC000546142192    0.7100
     15 O15        -8.3785    0.0291   55.0274 O.2     1  ZINC000546142192   -0.5700
     16 N16       -10.1492   -1.2884   55.2774 N.am    1  ZINC000546142192   -0.7400
     17 C17       -10.0362   -1.2365   56.7371 C.3     1  ZINC000546142192    0.2300
     18 C18       -10.3468   -2.5938   57.3135 C.2     1  ZINC000546142192    0.1800
     19 N19       -10.8816   -3.5915   56.6644 N.2     1  ZINC000546142192   -0.4700
     20 C20       -11.0114   -4.6390   57.4919 C.2     1  ZINC000546142192   -0.0300
     21 C21       -10.5391   -4.2767   58.6999 C.2     1  ZINC000546142192   -0.0400
     22 N22       -10.1124   -2.9810   58.5858 N.pl3   1  ZINC000546142192   -0.4500
     23 C23        -9.5201   -2.1642   59.6480 C.3     1  ZINC000546142192    0.1100
     24 C24       -10.5901   -1.2460   60.2420 C.3     1  ZINC000546142192   -0.0900
     25 C25       -10.1064   -0.6978   61.5598 C.ar    1  ZINC000546142192   -0.0900
     26 C26       -11.0091   -0.1592   62.4575 C.ar    1  ZINC000546142192   -0.1100
     27 C27       -10.5654    0.3435   63.6664 C.ar    1  ZINC000546142192   -0.1200
     28 C28        -9.2190    0.3072   63.9776 C.ar    1  ZINC000546142192   -0.1200
     29 C29        -8.3164   -0.2322   63.0803 C.ar    1  ZINC000546142192   -0.1200
     30 C30        -8.7607   -0.7389   61.8733 C.ar    1  ZINC000546142192   -0.1100
     31 C31        -8.6504    1.3748   52.0967 C.ar    1  ZINC000546142192   -0.1500
     32 C32        -7.7417    2.0593   51.3137 C.ar    1  ZINC000546142192   -0.0900
     33 H33        -2.6330    0.6425   47.5103 H       1  ZINC000546142192    0.0600
     34 H34        -2.5217    2.1253   46.5319 H       1  ZINC000546142192    0.1000
     35 H35        -1.3403    1.8239   47.8286 H       1  ZINC000546142192    0.0600
     36 H36        -4.2118    4.4202   50.3738 H       1  ZINC000546142192    0.0600
     37 H37        -5.0187    3.9423   51.8866 H       1  ZINC000546142192    0.0800
     38 H38        -3.2484    3.8227   51.7461 H       1  ZINC000546142192    0.0700
     39 H39        -6.0512    3.1403   49.7048 H       1  ZINC000546142192    0.0800
     40 H40        -5.4912    1.6018   49.0064 H       1  ZINC000546142192    0.0800
     41 H41        -5.5834   -0.4500   50.6547 H       1  ZINC000546142192    0.1300
     42 H42        -7.1916   -1.6771   52.0564 H       1  ZINC000546142192    0.1400
     43 H43       -10.0789   -1.1850   52.7525 H       1  ZINC000546142192    0.4100
     44 H44       -10.8588   -1.8043   54.8638 H       1  ZINC000546142192    0.4000
     45 H45        -9.0219   -0.9481   57.0131 H       1  ZINC000546142192    0.0800
     46 H46       -10.7418   -0.5046   57.1303 H       1  ZINC000546142192    0.1000
     47 H47       -11.4227   -5.6040   57.2346 H       1  ZINC000546142192    0.1700
     48 H48       -10.5005   -4.8914   59.5869 H       1  ZINC000546142192    0.1800
     49 H49        -9.1249   -2.8142   60.4287 H       1  ZINC000546142192    0.1000
     50 H50        -8.7122   -1.5606   59.2344 H       1  ZINC000546142192    0.0900
     51 H51       -10.7842   -0.4222   59.5550 H       1  ZINC000546142192    0.0800
     52 H52       -11.5082   -1.8121   60.3989 H       1  ZINC000546142192    0.0800
     53 H53       -12.0609   -0.1309   62.2143 H       1  ZINC000546142192    0.1200
     54 H54       -11.2706    0.7649   64.3674 H       1  ZINC000546142192    0.1200
     55 H55        -8.8723    0.7007   64.9218 H       1  ZINC000546142192    0.1200
     56 H56        -7.2645   -0.2603   63.3234 H       1  ZINC000546142192    0.1200
     57 H57        -8.0555   -1.1604   61.1722 H       1  ZINC000546142192    0.1200
     58 H58        -9.5107    1.8879   52.5006 H       1  ZINC000546142192    0.1300
     59 H59        -7.8936    3.1076   51.1023 H       1  ZINC000546142192    0.1300
@<TRIPOS>BOND
     1     1     2    1
     2     1    33    1
     3     1    34    1
     4     1    35    1
     5     2     3    1
     6     3     4    2
     7     3     5    1
     8     5     6    1
     9     5     7    1
    10     5     8    1
    11     7    36    1
    12     7    37    1
    13     7    38    1
    14     8     9    1
    15     8    39    1
    16     8    40    1
    17     9    32   ar
    18     9    10   ar
    19    10    11   ar
    20    10    41    1
    21    11    12   ar
    22    11    42    1
    23    12    13    1
    24    12    31   ar
    25    13    14   am
    26    13    43    1
    27    14    15    2
    28    14    16   am
    29    16    17    1
    30    16    44    1
    31    17    18    1
    32    17    45    1
    33    17    46    1
    34    18    22    1
    35    18    19    2
    36    19    20    1
    37    20    21    2
    38    20    47    1
    39    21    22    1
    40    21    48    1
    41    22    23    1
    42    23    24    1
    43    23    49    1
    44    23    50    1
    45    24    25    1
    46    24    51    1
    47    24    52    1
    48    25    30   ar
    49    25    26   ar
    50    26    27   ar
    51    26    53    1
    52    27    28   ar
    53    27    54    1
    54    28    29   ar
    55    28    55    1
    56    29    30   ar
    57    29    56    1
    58    30    57    1
    59    31    32   ar
    60    31    58    1
    61    32    59    1
@<TRIPOS>SUBSTRUCTURE
     1 ZINC000546142192        1 TEMP              0 ****  ****    0 ROOT


##########                                Name:    ZINC000508782983
##########                DOCK_Rotatable_Bonds:                   9
##########                         Heavy_Atoms:                  27
##########                    Molecular_Weight:             373.458
##########                DOCK_Rotatable_Bonds:                   9
##########                       Formal_Charge:          -0.0200006
##########                     HBond_Acceptors:                   9
##########                        HBond_Donors:                   2
##########                         Heavy_Atoms:                  27
##########                          Grid_Score:          -39.192764
##########                     Grid_vdw_energy:          -36.684212
##########                      Grid_es_energy:           -2.508551
##########           Internal_energy_repulsive:           19.573673

@<TRIPOS>MOLECULE
ZINC000508782983
 54 56 1 0 0
SMALL
USER_CHARGES


@<TRIPOS>ATOM
      1 C1         -8.4538    1.5485   57.5465 C.3     1  ZINC000508782983   -0.1500
      2 C2         -8.7225    1.4557   56.0432 C.3     1  ZINC000508782983   -0.1100
      3 C3         -7.8175    2.4416   55.3015 C.3     1  ZINC000508782983   -0.1500
      4 C4         -8.4312    0.0335   55.5599 C.3     1  ZINC000508782983    0.1000
      5 N5         -8.8557   -0.1047   54.1645 N.pl3   1  ZINC000508782983   -0.4400
      6 C6        -10.1400   -0.2632   53.7182 C.2     1  ZINC000508782983   -0.0400
      7 C7        -10.0782   -0.3486   52.3756 C.2     1  ZINC000508782983   -0.0300
      8 N8         -8.7912   -0.2450   52.0121 N.2     1  ZINC000508782983   -0.4700
      9 C9         -8.0538   -0.0937   53.0781 C.2     1  ZINC000508782983    0.1700
     10 C10        -6.5546    0.0587   53.0946 C.3     1  ZINC000508782983    0.2100
     11 N11        -6.1531    1.0465   52.0900 N.am    1  ZINC000508782983   -0.6900
     12 C12        -5.7936    0.6440   50.8550 C.2     1  ZINC000508782983    0.5100
     13 O13        -5.8039   -0.5367   50.5747 O.2     1  ZINC000508782983   -0.5100
     14 C14        -5.3823    1.6516   49.8307 C.2     1  ZINC000508782983    0.5100
     15 O15        -6.2240    2.2213   49.1679 O.2     1  ZINC000508782983   -0.5200
     16 N16        -4.0764    1.9275   49.6433 N.am    1  ZINC000508782983   -0.5800
     17 C17        -3.0398    1.2440   50.4315 C.3     1  ZINC000508782983    0.0800
     18 C18        -1.9929    0.6738   49.4687 C.3     1  ZINC000508782983    0.0400
     19 N19        -1.5015    1.7465   48.5935 N.3     1  ZINC000508782983   -0.5400
     20 C20        -0.3752    1.2818   47.7727 C.3     1  ZINC000508782983    0.1400
     21 C21        -0.8954    0.4369   46.6384 C.2     1  ZINC000508782983    0.2100
     22 N22        -1.1192    0.8517   45.4215 N.2     1  ZINC000508782983   -0.4900
     23 C23        -1.5766   -0.1701   44.6829 C.2     1  ZINC000508782983   -0.0300
     24 C24        -1.6387   -1.2595   45.4720 C.2     1  ZINC000508782983   -0.0500
     25 N25        -1.2016   -0.8764   46.7113 N.pl3   1  ZINC000508782983   -0.5600
     26 C26        -2.5794    2.2837   47.7524 C.3     1  ZINC000508782983    0.0400
     27 C27        -3.6500    2.9155   48.6407 C.3     1  ZINC000508782983    0.1100
     28 H28        -8.6612    2.5617   57.8908 H       1  ZINC000508782983    0.0700
     29 H29        -9.0984    0.8461   58.0749 H       1  ZINC000508782983    0.0600
     30 H30        -7.4103    1.3039   57.7449 H       1  ZINC000508782983    0.0600
     31 H31        -9.7659    1.7004   55.8447 H       1  ZINC000508782983    0.0800
     32 H32        -6.7771    2.2455   55.5607 H       1  ZINC000508782983    0.0600
     33 H33        -7.9531    2.3214   54.2267 H       1  ZINC000508782983    0.0600
     34 H34        -8.0777    3.4604   55.5888 H       1  ZINC000508782983    0.0600
     35 H35        -7.3620   -0.1642   55.6356 H       1  ZINC000508782983    0.1000
     36 H36        -8.9772   -0.6791   56.1780 H       1  ZINC000508782983    0.0900
     37 H37       -11.0315   -0.3110   54.3259 H       1  ZINC000508782983    0.1800
     38 H38       -10.9176   -0.4777   51.7085 H       1  ZINC000508782983    0.1700
     39 H39        -6.2342    0.3931   54.0813 H       1  ZINC000508782983    0.0900
     40 H40        -6.0893   -0.9004   52.8671 H       1  ZINC000508782983    0.1100
     41 H41        -6.1459    1.9904   52.3137 H       1  ZINC000508782983    0.4200
     42 H42        -2.5660    1.9552   51.1082 H       1  ZINC000508782983    0.0800
     43 H43        -3.4902    0.4335   51.0045 H       1  ZINC000508782983    0.1400
     44 H44        -1.1612    0.2601   50.0390 H       1  ZINC000508782983    0.0900
     45 H45        -2.4453   -0.1114   48.8629 H       1  ZINC000508782983    0.0400
     46 H46         0.1598    2.1416   47.3697 H       1  ZINC000508782983    0.0900
     47 H47         0.3016    0.6881   48.3872 H       1  ZINC000508782983    0.0700
     48 H48        -1.8476   -0.1267   43.6383 H       1  ZINC000508782983    0.1700
     49 H49        -1.9663   -2.2469   45.1818 H       1  ZINC000508782983    0.1800
     50 H50        -1.1304   -1.4412   47.4965 H       1  ZINC000508782983    0.4200
     51 H51        -2.1731    3.0376   47.0781 H       1  ZINC000508782983    0.1100
     52 H52        -3.0236    1.4762   47.1706 H       1  ZINC000508782983    0.0400
     53 H53        -4.5033    3.2124   48.0309 H       1  ZINC000508782983    0.1000
     54 H54        -3.2373    3.7879   49.1475 H       1  ZINC000508782983    0.0800
@<TRIPOS>BOND
     1     1     2    1
     2     1    28    1
     3     1    29    1
     4     1    30    1
     5     2     3    1
     6     2     4    1
     7     2    31    1
     8     3    32    1
     9     3    33    1
    10     3    34    1
    11     4     5    1
    12     4    35    1
    13     4    36    1
    14     5     9    1
    15     5     6    1
    16     6     7    2
    17     6    37    1
    18     7     8    1
    19     7    38    1
    20     8     9    2
    21     9    10    1
    22    10    11    1
    23    10    39    1
    24    10    40    1
    25    11    12   am
    26    11    41    1
    27    12    13    2
    28    12    14    1
    29    14    15    2
    30    14    16   am
    31    16    27    1
    32    16    17    1
    33    17    18    1
    34    17    42    1
    35    17    43    1
    36    18    19    1
    37    18    44    1
    38    18    45    1
    39    19    20    1
    40    19    26    1
    41    20    21    1
    42    20    46    1
    43    20    47    1
    44    21    25    1
    45    21    22    2
    46    22    23    1
    47    23    24    2
    48    23    48    1
    49    24    25    1
    50    24    49    1
    51    25    50    1
    52    26    27    1
    53    26    51    1
    54    26    52    1
    55    27    53    1
    56    27    54    1
@<TRIPOS>SUBSTRUCTURE
     1 ZINC000508782983        1 TEMP              0 ****  ****    0 ROOT


##########                                Name:    ZINC000465642058
##########                DOCK_Rotatable_Bonds:                  10
##########                         Heavy_Atoms:                  31
##########                    Molecular_Weight:             420.511
##########                DOCK_Rotatable_Bonds:                  10
##########                       Formal_Charge:          1.2666e-07
##########                     HBond_Acceptors:                   7
##########                        HBond_Donors:                   2
##########                         Heavy_Atoms:                  31
##########                          Grid_Score:          -38.292900
##########                     Grid_vdw_energy:          -36.396809
##########                      Grid_es_energy:           -1.896093
##########           Internal_energy_repulsive:           18.889671

@<TRIPOS>MOLECULE
ZINC000465642058
 59 62 1 0 0
SMALL
USER_CHARGES


@<TRIPOS>ATOM
      1 C1          1.3793    1.8457   52.4121 C.3     1  ZINC000465642058   -0.1500
      2 C2          0.8735    1.3736   51.0474 C.3     1  ZINC000465642058    0.0500
      3 O3          0.3864    2.4941   50.3064 O.3     1  ZINC000465642058   -0.3000
      4 C4         -0.2040    2.2331   49.1095 C.ar    1  ZINC000465642058    0.1200
      5 C5          0.4340    1.4259   48.1783 C.ar    1  ZINC000465642058   -0.1600
      6 C6         -0.1690    1.1637   46.9680 C.ar    1  ZINC000465642058   -0.1300
      7 C7         -1.4167    1.6925   46.6650 C.ar    1  ZINC000465642058    0.0700
      8 C8         -2.0501    2.5056   47.6016 C.ar    1  ZINC000465642058   -0.0700
      9 C9         -1.4499    2.7675   48.8153 C.ar    1  ZINC000465642058   -0.1100
     10 C10        -2.1449    3.6483   49.8213 C.3     1  ZINC000465642058    0.1900
     11 N11        -3.5951    3.4830   49.6957 N.am    1  ZINC000465642058   -0.7300
     12 C12        -4.1805    2.3386   50.1004 C.2     1  ZINC000465642058    0.7100
     13 O13        -3.5048    1.4426   50.5685 O.2     1  ZINC000465642058   -0.5900
     14 N14        -5.5148    2.1872   49.9864 N.am    1  ZINC000465642058   -0.6200
     15 C15        -6.1509    0.9423   50.4246 C.3     1  ZINC000465642058    0.1900
     16 C16        -6.3629    0.9847   51.9161 C.2     1  ZINC000465642058    0.0500
     17 N17        -5.4803    1.3595   52.8062 N.2     1  ZINC000465642058   -0.2700
     18 N18        -6.0662    1.2556   54.0743 N.pl3   1  ZINC000465642058   -0.4700
     19 C19        -7.3284    0.8062   53.9131 C.2     1  ZINC000465642058    0.0600
     20 C20        -7.5394    0.6358   52.5874 C.2     1  ZINC000465642058   -0.2600
     21 C21        -6.3293    3.2674   49.4240 C.3     1  ZINC000465642058    0.1700
     22 C22        -7.4411    3.6091   50.3821 C.ar    1  ZINC000465642058   -0.1100
     23 C23        -8.7590    3.4916   49.9818 C.ar    1  ZINC000465642058   -0.0900
     24 C24        -9.7789    3.8051   50.8607 C.ar    1  ZINC000465642058   -0.1200
     25 C25        -9.4809    4.2359   52.1399 C.ar    1  ZINC000465642058   -0.1200
     26 C26        -8.1631    4.3526   52.5405 C.ar    1  ZINC000465642058   -0.1300
     27 C27        -7.1433    4.0349   51.6631 C.ar    1  ZINC000465642058   -0.1100
     28 O28        -1.8359    1.2912   45.4323 O.3     1  ZINC000465642058   -0.3000
     29 C29        -0.7031    0.8386   44.6716 C.3     1  ZINC000465642058    0.0800
     30 H30        -0.2648    1.6604   44.1054 H       1  ZINC000465642058    0.0900
     31 C31        -1.0994   -0.3083   43.7396 C.3     1  ZINC000465642058   -0.1500
     32 C32         0.2713    0.3474   45.7681 C.3     1  ZINC000465642058   -0.1100
     33 H33         0.5624    2.3160   52.9595 H       1  ZINC000465642058    0.0700
     34 H34         1.7509    0.9911   52.9773 H       1  ZINC000465642058    0.0800
     35 H35         2.1849    2.5665   52.2716 H       1  ZINC000465642058    0.0700
     36 H36         1.6904    0.9034   50.5000 H       1  ZINC000465642058    0.0600
     37 H37         0.0680    0.6529   51.1880 H       1  ZINC000465642058    0.0600
     38 H38         1.4028    1.0040   48.4021 H       1  ZINC000465642058    0.1300
     39 H39        -3.0179    2.9296   47.3781 H       1  ZINC000465642058    0.1400
     40 H40        -1.8329    3.3672   50.8272 H       1  ZINC000465642058    0.0700
     41 H41        -1.8805    4.6895   49.6366 H       1  ZINC000465642058    0.0800
     42 H42        -4.1340    4.1974   49.3212 H       1  ZINC000465642058    0.4000
     43 H43        -7.1126    0.8299   49.9241 H       1  ZINC000465642058    0.1000
     44 H44        -5.5091    0.0981   50.1727 H       1  ZINC000465642058    0.0900
     45 H45        -5.6399    1.4689   54.9191 H       1  ZINC000465642058    0.4400
     46 H46        -8.0435    0.6200   54.7008 H       1  ZINC000465642058    0.1800
     47 H47        -8.4527    0.2861   52.1292 H       1  ZINC000465642058    0.1500
     48 H48        -5.7054    4.1466   49.2628 H       1  ZINC000465642058    0.0900
     49 H49        -6.7548    2.9446   48.4738 H       1  ZINC000465642058    0.0900
     50 H50        -8.9918    3.1551   48.9823 H       1  ZINC000465642058    0.1300
     51 H51       -10.8085    3.7140   50.5476 H       1  ZINC000465642058    0.1200
     52 H52       -10.2777    4.4815   52.8264 H       1  ZINC000465642058    0.1200
     53 H53        -7.9302    4.6894   53.5400 H       1  ZINC000465642058    0.1200
     54 H54        -6.1137    4.1260   51.9761 H       1  ZINC000465642058    0.1200
     55 H55        -1.8532    0.0408   43.0341 H       1  ZINC000465642058    0.0700
     56 H56        -0.2213   -0.6521   43.1929 H       1  ZINC000465642058    0.0800
     57 H57        -1.5058   -1.1308   44.3282 H       1  ZINC000465642058    0.0700
     58 H58         1.3038    0.5730   45.5012 H       1  ZINC000465642058    0.0900
     59 H59         0.1429   -0.7189   45.9541 H       1  ZINC000465642058    0.1000
@<TRIPOS>BOND
     1     1     2    1
     2     1    33    1
     3     1    34    1
     4     1    35    1
     5     2     3    1
     6     2    36    1
     7     2    37    1
     8     3     4    1
     9     4     9   ar
    10     4     5   ar
    11     5     6   ar
    12     5    38    1
    13     6    32    1
    14     6     7   ar
    15     7     8   ar
    16     7    28    1
    17     8     9   ar
    18     8    39    1
    19     9    10    1
    20    10    11    1
    21    10    40    1
    22    10    41    1
    23    11    12   am
    24    11    42    1
    25    12    13    2
    26    12    14   am
    27    14    15    1
    28    14    21    1
    29    15    16    1
    30    15    43    1
    31    15    44    1
    32    16    20    1
    33    16    17    2
    34    17    18    1
    35    18    19    1
    36    18    45    1
    37    19    20    2
    38    19    46    1
    39    20    47    1
    40    21    22    1
    41    21    48    1
    42    21    49    1
    43    22    27   ar
    44    22    23   ar
    45    23    24   ar
    46    23    50    1
    47    24    25   ar
    48    24    51    1
    49    25    26   ar
    50    25    52    1
    51    26    27   ar
    52    26    53    1
    53    27    54    1
    54    28    29    1
    55    29    30    1
    56    29    31    1
    57    29    32    1
    58    31    55    1
    59    31    56    1
    60    31    57    1
    61    32    58    1
    62    32    59    1
@<TRIPOS>SUBSTRUCTURE
     1 ZINC000465642058        1 TEMP              0 ****  ****    0 ROOT


##########                                Name:    ZINC001591898574
##########                DOCK_Rotatable_Bonds:                  10
##########                         Heavy_Atoms:                  26
##########                    Molecular_Weight:             383.434
##########                DOCK_Rotatable_Bonds:                  10
##########                       Formal_Charge:         5.96046e-08
##########                     HBond_Acceptors:                  13
##########                        HBond_Donors:                   3
##########                         Heavy_Atoms:                  26
##########                          Grid_Score:          -37.796360
##########                     Grid_vdw_energy:          -36.901344
##########                      Grid_es_energy:           -0.895014
##########           Internal_energy_repulsive:           13.293651

@<TRIPOS>MOLECULE
ZINC001591898574
 47 48 1 0 0
SMALL
USER_CHARGES


@<TRIPOS>ATOM
      1 C1         -0.2102    1.2531   50.6061 C.3     1  ZINC001591898574   -0.1100
      2 C2         -1.1627    1.4689   49.4583 C.ar    1  ZINC001591898574    0.2300
      3 C3         -0.8418    1.0200   48.1895 C.ar    1  ZINC001591898574   -0.2400
      4 C4         -1.7540    1.2410   47.1549 C.ar    1  ZINC001591898574    0.3000
      5 C5         -1.4564    0.7783   45.7766 C.2     1  ZINC001591898574    0.2100
      6 N6         -2.1804    1.0012   44.6976 N.2     1  ZINC001591898574   -0.2500
      7 N7         -1.5879    0.4370   43.7018 N.pl3   1  ZINC001591898574   -0.2200
      8 N8         -0.5120   -0.1362   44.1153 N.2     1  ZINC001591898574   -0.0400
      9 N9         -0.3961    0.0571   45.3854 N.2     1  ZINC001591898574   -0.2500
     10 N10        -2.8940    1.8722   47.4240 N.ar    1  ZINC001591898574   -0.5500
     11 C11        -3.1620    2.2855   48.6529 C.ar    1  ZINC001591898574    0.5800
     12 N12        -4.3571    2.9391   48.8989 N.pl3   1  ZINC001591898574   -0.7000
     13 C13        -4.8108    3.1419   50.2770 C.3     1  ZINC001591898574    0.1400
     14 C14        -6.2964    3.5080   50.2761 C.3     1  ZINC001591898574   -0.1500
     15 C15        -7.1279    2.2640   49.9562 C.3     1  ZINC001591898574    0.1200
     16 N16        -7.4087    1.5328   51.1941 N.am    1  ZINC001591898574   -0.7300
     17 C17        -6.8625    0.3175   51.3976 C.2     1  ZINC001591898574    0.4900
     18 O18        -6.1373   -0.1699   50.5566 O.2     1  ZINC001591898574   -0.5300
     19 C19        -7.1528   -0.4355   52.6703 C.3     1  ZINC001591898574    0.1000
     20 N20        -8.3825    0.0831   53.2748 N.am    1  ZINC001591898574   -0.9800
     21 C21        -9.6841   -0.2604   52.6970 C.3     1  ZINC001591898574    0.1000
     22 S22        -8.3010    1.0577   54.6112 S.o2    1  ZINC001591898574    2.6100
     23 C23       -10.0311    1.4452   54.9949 C.3     1  ZINC001591898574   -0.6600
     24 O24        -7.7412    0.2257   55.6180 O.2     1  ZINC001591898574   -0.9500
     25 O25        -7.6188    2.2186   54.1573 O.2     1  ZINC001591898574   -0.9600
     26 N26        -2.3176    2.0851   49.6542 N.ar    1  ZINC001591898574   -0.5600
     27 H27        -0.4281    0.2982   51.0845 H       1  ZINC001591898574    0.0900
     28 H28         0.8137    1.2469   50.2324 H       1  ZINC001591898574    0.0900
     29 H29        -0.3273    2.0581   51.3317 H       1  ZINC001591898574    0.0900
     30 H30         0.0924    0.5110   48.0033 H       1  ZINC001591898574    0.1600
     31 H31        -1.9034    0.4432   42.7845 H       1  ZINC001591898574    0.4800
     32 H32        -4.8941    3.2628   48.1589 H       1  ZINC001591898574    0.4200
     33 H33        -4.6630    2.2245   50.8469 H       1  ZINC001591898574    0.0700
     34 H34        -4.2379    3.9493   50.7331 H       1  ZINC001591898574    0.0700
     35 H35        -6.5772    3.8901   51.2575 H       1  ZINC001591898574    0.0800
     36 H36        -6.4817    4.2726   49.5217 H       1  ZINC001591898574    0.0800
     37 H37        -8.0666    2.5642   49.4906 H       1  ZINC001591898574    0.0700
     38 H38        -6.5725    1.6216   49.2727 H       1  ZINC001591898574    0.0700
     39 H39        -7.9877    1.9231   51.8673 H       1  ZINC001591898574    0.4000
     40 H40        -7.2772   -1.4947   52.4455 H       1  ZINC001591898574    0.1200
     41 H41        -6.3237   -0.3066   53.3660 H       1  ZINC001591898574    0.1300
     42 H42       -10.0578   -1.1735   53.1604 H       1  ZINC001591898574    0.0600
     43 H43       -10.3875    0.5525   52.8770 H       1  ZINC001591898574    0.0700
     44 H44        -9.5755   -0.4160   51.6236 H       1  ZINC001591898574    0.0700
     45 H45       -10.5740    0.5219   55.1971 H       1  ZINC001591898574    0.1300
     46 H46       -10.0728    2.0908   55.8722 H       1  ZINC001591898574    0.1200
     47 H47       -10.4860    1.9557   54.1462 H       1  ZINC001591898574    0.1300
@<TRIPOS>BOND
     1     1     2    1
     2     1    27    1
     3     1    28    1
     4     1    29    1
     5     2    26   ar
     6     2     3   ar
     7     3     4   ar
     8     3    30    1
     9     4     5    1
    10     4    10   ar
    11     5     9    1
    12     5     6    2
    13     6     7    1
    14     7     8    1
    15     7    31    1
    16     8     9    2
    17    10    11   ar
    18    11    12    1
    19    11    26   ar
    20    12    13    1
    21    12    32    1
    22    13    14    1
    23    13    33    1
    24    13    34    1
    25    14    15    1
    26    14    35    1
    27    14    36    1
    28    15    16    1
    29    15    37    1
    30    15    38    1
    31    16    17   am
    32    16    39    1
    33    17    18    2
    34    17    19    1
    35    19    20    1
    36    19    40    1
    37    19    41    1
    38    20    21    1
    39    20    22   am
    40    21    42    1
    41    21    43    1
    42    21    44    1
    43    22    23    1
    44    22    24    2
    45    22    25    2
    46    23    45    1
    47    23    46    1
    48    23    47    1
@<TRIPOS>SUBSTRUCTURE
     1 ZINC001591898574        1 TEMP              0 ****  ****    0 ROOT


##########                                Name:     oleObject70.pdb
##########                DOCK_Rotatable_Bonds:                   9
##########                         Heavy_Atoms:                  35
##########                    Molecular_Weight:             504.458
##########                DOCK_Rotatable_Bonds:                   9
##########                       Formal_Charge:          0.00010002
##########                     HBond_Acceptors:                   6
##########                        HBond_Donors:                   2
##########                         Heavy_Atoms:                  35
##########                          Grid_Score:          -37.549187
##########                     Grid_vdw_energy:          -37.004768
##########                      Grid_es_energy:           -0.544420
##########           Internal_energy_repulsive:           28.927691

@<TRIPOS>MOLECULE
oleObject70.pdb
 62 65 1 0 0
SMALL
NO_CHARGES


@<TRIPOS>ATOM
      1 C         -13.4485   -4.7226   56.6681 C.ar    1  UNL        -0.0620
      2 C         -13.9462   -3.4822   56.2441 C.ar    1  UNL        -0.0590
      3 C         -13.1708   -2.3133   56.3720 C.ar    1  UNL        -0.0456
      4 C         -11.8677   -2.3913   56.9264 C.ar    1  UNL        -0.0187
      5 C         -11.3873   -3.6455   57.3624 C.ar    1  UNL        -0.0565
      6 C         -12.1690   -4.8028   57.2324 C.ar    1  UNL        -0.0619
      7 C         -10.9913   -1.1357   57.0818 C.3     1  UNL         0.0909
      8 C         -10.2460   -1.0560   58.4254 C.ar    1  UNL         0.0681
      9 C          -9.1358   -0.1942   58.6140 C.ar    1  UNL        -0.0272
     10 C          -8.5039   -0.1816   59.8719 C.ar    1  UNL        -0.0559
     11 C          -8.9918   -1.0122   60.8909 C.ar    1  UNL        -0.0435
     12 C         -10.0999   -1.8280   60.6196 C.ar    1  UNL         0.0272
     13 N         -10.7111   -1.8468   59.4207 N.ar    1  UNL        -0.2587
     14 C          -8.6055    0.7077   57.5049 C.3     1  UNL        -0.0379
     15 N         -10.1527   -0.8703   55.8919 N.am    1  UNL        -0.2987
     16 C         -10.2933    0.1821   54.9957 C.2     1  UNL         0.2437
     17 O         -11.1561    1.0353   55.1130 O.2     1  UNL        -0.2719
     18 C          -9.3016    0.2264   53.8578 C.ar    1  UNL         0.0371
     19 C          -8.5777   -0.9155   53.4467 C.ar    1  UNL        -0.0494
     20 C          -7.6638   -0.8389   52.3828 C.ar    1  UNL        -0.0570
     21 C          -7.4544    0.3762   51.7099 C.ar    1  UNL        -0.0341
     22 C          -8.1714    1.5157   52.1104 C.ar    1  UNL        -0.0570
     23 C          -9.0848    1.4410   53.1745 C.ar    1  UNL        -0.0494
     24 C          -6.4703    0.4536   50.5548 C.3     1  UNL         0.0208
     25 N          -5.9316    1.8109   50.4016 N.4     1  UNL        -0.3086
     26 C          -4.8804    1.9198   49.3814 C.3     1  UNL         0.0223
     27 C          -3.5000    2.0399   50.0128 C.ar    1  UNL        -0.0154
     28 C          -2.5420    1.0362   49.7725 C.ar    1  UNL        -0.0548
     29 C          -1.2597    1.1244   50.3386 C.ar    1  UNL        -0.0431
     30 C          -0.9259    2.2203   51.1492 C.ar    1  UNL         0.0421
     31 C          -1.8721    3.2281   51.3926 C.ar    1  UNL        -0.0245
     32 C          -3.1555    3.1411   50.8269 C.ar    1  UNL         0.0465
     33 CL         -4.3000    4.4301   51.1531 Cl      1  UNL        -0.0839
     34 CL          0.6726    2.3319   51.8546 Cl      1  UNL        -0.0843
     35 C         -13.7755   -0.9878   55.9192 C.3     1  UNL        -0.0394
     36 H         -14.0570   -5.6168   56.5689 H       1  UNL         0.0623
     37 H         -14.9446   -3.4302   55.8190 H       1  UNL         0.0626
     38 H         -10.4057   -3.7306   57.8164 H       1  UNL         0.0627
     39 H         -11.7839   -5.7593   57.5739 H       1  UNL         0.0623
     40 H         -11.6863   -0.2907   57.0899 H       1  UNL         0.0624
     41 H          -7.6469    0.4595   60.0575 H       1  UNL         0.0627
     42 H          -8.5222   -1.0242   61.8699 H       1  UNL         0.0639
     43 H         -10.5104   -2.4879   61.3827 H       1  UNL         0.0840
     44 H          -8.2046    0.1166   56.6726 H       1  UNL         0.0280
     45 H          -7.7956    1.3547   57.8644 H       1  UNL         0.0280
     46 H          -9.3932    1.3621   57.1123 H       1  UNL         0.0280
     47 H          -9.4055   -1.5253   55.7084 H       1  UNL         0.1508
     48 H          -8.7118   -1.8717   53.9420 H       1  UNL         0.0631
     49 H          -7.1189   -1.7281   52.0776 H       1  UNL         0.0626
     50 H          -8.0238    2.4610   51.5955 H       1  UNL         0.0626
     51 H          -9.6278    2.3361   53.4651 H       1  UNL         0.0631
     52 H          -6.9765    0.1481   49.6297 H       1  UNL         0.0479
     53 H          -5.6495   -0.2534   50.7327 H       1  UNL         0.0479
     54 H          -5.5596    2.1247   51.2978 H       1  UNL         0.1229
     55 H          -5.0692    2.8004   48.7537 H       1  UNL         0.0480
     56 H          -4.9044    1.0416   48.7233 H       1  UNL         0.0480
     57 H          -2.7907    0.1868   49.1423 H       1  UNL         0.0627
     58 H          -0.5271    0.3454   50.1471 H       1  UNL         0.0639
     59 H          -1.6106    4.0771   52.0177 H       1  UNL         0.0654
     60 H         -14.8363   -1.0934   55.6595 H       1  UNL         0.0280
     61 H         -13.2579   -0.6011   55.0326 H       1  UNL         0.0280
     62 H         -13.7109   -0.2308   56.7109 H       1  UNL         0.0280
@<TRIPOS>BOND
     1     1     2   ar
     2     1     6   ar
     3     1    36    1
     4     2     3   ar
     5     2    37    1
     6     3     4   ar
     7     3    35    1
     8     4     5   ar
     9     4     7    1
    10     5     6   ar
    11     5    38    1
    12     6    39    1
    13     7     8    1
    14     7    15    1
    15     7    40    1
    16     8     9   ar
    17     8    13   ar
    18     9    10   ar
    19     9    14    1
    20    10    11   ar
    21    10    41    1
    22    11    12   ar
    23    11    42    1
    24    12    13   ar
    25    12    43    1
    26    14    44    1
    27    14    45    1
    28    14    46    1
    29    15    16   am
    30    15    47    1
    31    16    17    2
    32    16    18    1
    33    18    19   ar
    34    18    23   ar
    35    19    20   ar
    36    19    48    1
    37    20    21   ar
    38    20    49    1
    39    21    22   ar
    40    21    24    1
    41    22    23   ar
    42    22    50    1
    43    23    51    1
    44    24    25    1
    45    24    52    1
    46    24    53    1
    47    25    26    1
    48    25    54    1
    49    26    27    1
    50    26    55    1
    51    26    56    1
    52    27    28   ar
    53    27    32   ar
    54    28    29   ar
    55    28    57    1
    56    29    30   ar
    57    29    58    1
    58    30    31   ar
    59    30    34    1
    60    31    32   ar
    61    31    59    1
    62    32    33    1
    63    35    60    1
    64    35    61    1
    65    35    62    1
@<TRIPOS>SUBSTRUCTURE
     1 UNL         1 TEMP              0 ****  ****    0 ROOT


##########                                Name:    ZINC000011620562
##########                DOCK_Rotatable_Bonds:                   9
##########                         Heavy_Atoms:                  29
##########                    Molecular_Weight:             417.448
##########                DOCK_Rotatable_Bonds:                   9
##########                       Formal_Charge:           0.0299999
##########                     HBond_Acceptors:                  12
##########                        HBond_Donors:                   1
##########                         Heavy_Atoms:                  29
##########                          Grid_Score:          -37.402405
##########                     Grid_vdw_energy:          -36.474987
##########                      Grid_es_energy:           -0.927419
##########           Internal_energy_repulsive:            7.721362

@<TRIPOS>MOLECULE
ZINC000011620562
 48 50 1 0 0
SMALL
USER_CHARGES


@<TRIPOS>ATOM
      1 C1         -7.9542   -0.5680   64.1896 C.3     1  ZINC000011620562    0.0400
      2 O2         -8.3102   -0.9843   62.8449 O.3     1  ZINC000011620562   -0.3500
      3 C3         -9.5320   -0.6441   62.4050 C.2     1  ZINC000011620562    0.4600
      4 O4        -10.2539    0.0374   63.0936 O.2     1  ZINC000011620562   -0.5000
      5 C5        -10.0031   -1.1122   61.0522 C.3     1  ZINC000011620562    0.1300
      6 N6        -11.4303   -1.4363   61.1175 N.am    1  ZINC000011620562   -0.7200
      7 C7        -11.9692   -2.2891   60.2237 C.2     1  ZINC000011620562    0.5400
      8 O8        -11.2723   -2.7893   59.3663 O.2     1  ZINC000011620562   -0.5200
      9 C9        -13.4377   -2.6211   60.2896 C.3     1  ZINC000011620562   -0.1600
     10 S10       -14.2318   -2.1566   58.7310 S.3     1  ZINC000011620562    0.1400
     11 C11       -13.9767   -3.6342   57.8054 C.2     1  ZINC000011620562    0.2100
     12 N12       -14.3779   -4.8431   58.1357 N.2     1  ZINC000011620562   -0.3400
     13 N13       -14.0281   -5.6935   57.2394 N.2     1  ZINC000011620562   -0.0300
     14 N14       -13.3893   -5.1049   56.2870 N.2     1  ZINC000011620562   -0.0800
     15 N15       -13.3352   -3.7391   56.6160 N.pl3   1  ZINC000011620562   -0.2600
     16 C16       -12.7367   -2.7035   55.8729 C.2     1  ZINC000011620562   -0.1300
     17 C17       -13.3888   -1.7361   55.1890 C.2     1  ZINC000011620562    0.2500
     18 C18       -14.8845   -1.5810   55.0908 C.3     1  ZINC000011620562   -0.1100
     19 N19       -12.4586   -0.9218   54.6013 N.pl3   1  ZINC000011620562   -0.3700
     20 C20       -12.7460    0.2496   53.7697 C.3     1  ZINC000011620562    0.0900
     21 N21       -11.1844   -1.4010   54.9323 N.am    1  ZINC000011620562   -0.3600
     22 C22        -9.9654   -0.8477   54.5281 C.ar    1  ZINC000011620562    0.1400
     23 C23        -9.5960   -0.8804   53.1895 C.ar    1  ZINC000011620562   -0.1300
     24 C24        -8.3917   -0.3326   52.7935 C.ar    1  ZINC000011620562   -0.1000
     25 C25        -7.5539    0.2481   53.7280 C.ar    1  ZINC000011620562   -0.1100
     26 C26        -7.9185    0.2820   55.0615 C.ar    1  ZINC000011620562   -0.1000
     27 C27        -9.1240   -0.2589   55.4633 C.ar    1  ZINC000011620562   -0.1000
     28 C28       -11.3431   -2.4877   55.7148 C.2     1  ZINC000011620562    0.5500
     29 O29       -10.4519   -3.1658   56.1930 O.2     1  ZINC000011620562   -0.5000
     30 H30        -8.6541   -1.0043   64.9022 H       1  ZINC000011620562    0.0700
     31 H31        -6.9437   -0.9062   64.4191 H       1  ZINC000011620562    0.1100
     32 H32        -7.9975    0.5191   64.2568 H       1  ZINC000011620562    0.0700
     33 H33        -9.8431   -0.3222   60.3184 H       1  ZINC000011620562    0.1200
     34 H34        -9.4420   -1.9995   60.7591 H       1  ZINC000011620562    0.1200
     35 H35       -11.9874   -1.0371   61.8039 H       1  ZINC000011620562    0.4200
     36 H36       -13.5612   -3.6913   60.4556 H       1  ZINC000011620562    0.1400
     37 H37       -13.8981   -2.0707   61.1102 H       1  ZINC000011620562    0.1400
     38 H38       -15.3703   -2.3742   55.6592 H       1  ZINC000011620562    0.1000
     39 H39       -15.1768   -0.6123   55.4960 H       1  ZINC000011620562    0.1000
     40 H40       -15.1885   -1.6444   54.0459 H       1  ZINC000011620562    0.1000
     41 H41       -13.8246    0.3591   53.6568 H       1  ZINC000011620562    0.1100
     42 H42       -12.3380    1.1416   54.2451 H       1  ZINC000011620562    0.0900
     43 H43       -12.2893    0.1195   52.7886 H       1  ZINC000011620562    0.0900
     44 H44       -10.2497   -1.3341   52.4593 H       1  ZINC000011620562    0.1300
     45 H45        -8.1037   -0.3581   51.7529 H       1  ZINC000011620562    0.1300
     46 H46        -6.6127    0.6758   53.4156 H       1  ZINC000011620562    0.1300
     47 H47        -7.2616    0.7356   55.7889 H       1  ZINC000011620562    0.1400
     48 H48        -9.4083   -0.2319   56.5049 H       1  ZINC000011620562    0.1400
@<TRIPOS>BOND
     1     1     2    1
     2     1    30    1
     3     1    31    1
     4     1    32    1
     5     2     3    1
     6     3     4    2
     7     3     5    1
     8     5     6    1
     9     5    33    1
    10     5    34    1
    11     6     7   am
    12     6    35    1
    13     7     8    2
    14     7     9    1
    15     9    10    1
    16     9    36    1
    17     9    37    1
    18    10    11    1
    19    11    15    1
    20    11    12    2
    21    12    13    1
    22    13    14    2
    23    14    15    1
    24    15    16    1
    25    16    28    1
    26    16    17    2
    27    17    18    1
    28    17    19    1
    29    18    38    1
    30    18    39    1
    31    18    40    1
    32    19    20    1
    33    19    21    1
    34    20    41    1
    35    20    42    1
    36    20    43    1
    37    21    22    1
    38    21    28   am
    39    22    27   ar
    40    22    23   ar
    41    23    24   ar
    42    23    44    1
    43    24    25   ar
    44    24    45    1
    45    25    26   ar
    46    25    46    1
    47    26    27   ar
    48    26    47    1
    49    27    48    1
    50    28    29    2
@<TRIPOS>SUBSTRUCTURE
     1 ZINC000011620562        1 TEMP              0 ****  ****    0 ROOT


##########                                Name:    ZINC001289410668
##########                DOCK_Rotatable_Bonds:                  11
##########                         Heavy_Atoms:                  26
##########                    Molecular_Weight:             362.515
##########                DOCK_Rotatable_Bonds:                  11
##########                       Formal_Charge:          -0.0400008
##########                     HBond_Acceptors:                   6
##########                        HBond_Donors:                   1
##########                         Heavy_Atoms:                  26
##########                          Grid_Score:          -37.222969
##########                     Grid_vdw_energy:          -36.843636
##########                      Grid_es_energy:           -0.379332
##########           Internal_energy_repulsive:           11.744401

@<TRIPOS>MOLECULE
ZINC001289410668
 60 61 1 0 0
SMALL
USER_CHARGES


@<TRIPOS>ATOM
      1 C1         -1.1861   -0.2104   43.4782 C.3     1  ZINC001289410668   -0.1500
      2 C2         -0.3482    0.5723   44.4914 C.3     1  ZINC001289410668   -0.1300
      3 C3         -1.1075    0.6669   45.8163 C.3     1  ZINC001289410668   -0.1200
      4 C4         -0.2969    1.5013   46.8102 C.3     1  ZINC001289410668   -0.1200
      5 C5         -0.9878    1.4820   48.1751 C.3     1  ZINC001289410668   -0.1100
      6 C6         -2.0396    2.5917   48.2300 C.3     1  ZINC001289410668   -0.1400
      7 C7         -2.9652    2.3494   49.3944 C.2     1  ZINC001289410668    0.5100
      8 O8         -2.5089    2.1029   50.4907 O.2     1  ZINC001289410668   -0.5300
      9 N9         -4.3001    2.4065   49.2174 N.am    1  ZINC001289410668   -0.7200
     10 C10        -5.1999    2.1727   50.3496 C.3     1  ZINC001289410668    0.1400
     11 H11        -4.6888    2.3523   51.2956 H       1  ZINC001289410668    0.1100
     12 C12        -5.7926    0.7424   50.3016 C.3     1  ZINC001289410668    0.0800
     13 N13        -7.0595    0.8335   51.0499 N.am    1  ZINC001289410668   -0.6200
     14 C14        -7.6863   -0.1911   51.6612 C.2     1  ZINC001289410668    0.5100
     15 O15        -7.2089   -1.3052   51.6203 O.2     1  ZINC001289410668   -0.5100
     16 C16        -8.9804    0.0476   52.3956 C.3     1  ZINC001289410668    0.0900
     17 N17        -8.7134    0.1603   53.8316 N.pl3   1  ZINC001289410668   -0.4500
     18 C18        -7.6684    0.8259   54.4136 C.2     1  ZINC001289410668   -0.0500
     19 C19        -7.8049    0.6771   55.7451 C.2     1  ZINC001289410668   -0.0200
     20 N20        -8.9033   -0.0591   55.9699 N.2     1  ZINC001289410668   -0.4800
     21 C21        -9.4554   -0.3680   54.8286 C.2     1  ZINC001289410668    0.2300
     22 C22       -10.7083   -1.1867   54.6520 C.3     1  ZINC001289410668   -0.0100
     23 C23       -11.0471   -1.8909   55.9674 C.3     1  ZINC001289410668   -0.1400
     24 C24       -11.8651   -0.2687   54.2523 C.3     1  ZINC001289410668   -0.1400
     25 C25        -7.5257    2.2276   51.0194 C.3     1  ZINC001289410668    0.1100
     26 C26        -6.4779    3.0447   50.2336 C.3     1  ZINC001289410668   -0.1100
     27 H27        -6.7765    3.1534   49.1909 H       1  ZINC001289410668    0.0900
     28 C28        -6.2650    4.4153   50.8792 C.3     1  ZINC001289410668   -0.1400
     29 H29        -0.6452   -0.2778   42.5343 H       1  ZINC001289410668    0.0500
     30 H30        -1.3755   -1.2132   43.8610 H       1  ZINC001289410668    0.0500
     31 H31        -2.1344    0.3024   43.3177 H       1  ZINC001289410668    0.0500
     32 H32         0.6002    0.0596   44.6519 H       1  ZINC001289410668    0.0600
     33 H33        -0.1588    1.5752   44.1086 H       1  ZINC001289410668    0.0600
     34 H34        -2.0745    1.1408   45.6479 H       1  ZINC001289410668    0.0600
     35 H35        -1.2588   -0.3339   46.2207 H       1  ZINC001289410668    0.0600
     36 H36         0.7049    1.0823   46.9042 H       1  ZINC001289410668    0.0600
     37 H37        -0.2289    2.5284   46.4518 H       1  ZINC001289410668    0.0600
     38 H38        -1.4705    0.5161   48.3243 H       1  ZINC001289410668    0.0700
     39 H39        -0.2481    1.6434   48.9591 H       1  ZINC001289410668    0.0700
     40 H40        -1.5451    3.5552   48.3534 H       1  ZINC001289410668    0.1000
     41 H41        -2.6141    2.5941   47.3036 H       1  ZINC001289410668    0.1000
     42 H42        -4.6650    2.6025   48.3403 H       1  ZINC001289410668    0.4000
     43 H43        -5.9818    0.4446   49.2702 H       1  ZINC001289410668    0.0800
     44 H44        -5.1173    0.0354   50.7837 H       1  ZINC001289410668    0.0800
     45 H45        -9.4366    0.9705   52.0373 H       1  ZINC001289410668    0.1200
     46 H46        -9.6589   -0.7865   52.2165 H       1  ZINC001289410668    0.1200
     47 H47        -6.8848    1.3660   53.9031 H       1  ZINC001289410668    0.1700
     48 H48        -7.1455    1.0800   56.4996 H       1  ZINC001289410668    0.1700
     49 H49       -10.5489   -1.9312   53.8719 H       1  ZINC001289410668    0.0700
     50 H50       -11.2064   -1.1464   56.7474 H       1  ZINC001289410668    0.0700
     51 H51       -11.9532   -2.4830   55.8396 H       1  ZINC001289410668    0.0600
     52 H52       -10.2229   -2.5448   56.2521 H       1  ZINC001289410668    0.0500
     53 H53       -12.0245    0.4757   55.0324 H       1  ZINC001289410668    0.0700
     54 H54       -11.6238    0.2330   53.3151 H       1  ZINC001289410668    0.0600
     55 H55       -12.7714   -0.8607   54.1245 H       1  ZINC001289410668    0.0600
     56 H56        -8.4922    2.2845   50.5189 H       1  ZINC001289410668    0.0800
     57 H57        -7.6091    2.6128   52.0357 H       1  ZINC001289410668    0.0800
     58 H58        -5.9384    4.2842   51.9109 H       1  ZINC001289410668    0.0600
     59 H59        -5.5040    4.9641   50.3243 H       1  ZINC001289410668    0.0600
     60 H60        -7.2007    4.9742   50.8625 H       1  ZINC001289410668    0.0700
@<TRIPOS>BOND
     1     1     2    1
     2     1    29    1
     3     1    30    1
     4     1    31    1
     5     2     3    1
     6     2    32    1
     7     2    33    1
     8     3     4    1
     9     3    34    1
    10     3    35    1
    11     4     5    1
    12     4    36    1
    13     4    37    1
    14     5     6    1
    15     5    38    1
    16     5    39    1
    17     6     7    1
    18     6    40    1
    19     6    41    1
    20     7     8    2
    21     7     9   am
    22     9    10    1
    23     9    42    1
    24    10    11    1
    25    10    26    1
    26    10    12    1
    27    12    13    1
    28    12    43    1
    29    12    44    1
    30    13    14   am
    31    13    25    1
    32    14    15    2
    33    14    16    1
    34    16    17    1
    35    16    45    1
    36    16    46    1
    37    17    21    1
    38    17    18    1
    39    18    19    2
    40    18    47    1
    41    19    20    1
    42    19    48    1
    43    20    21    2
    44    21    22    1
    45    22    23    1
    46    22    24    1
    47    22    49    1
    48    23    50    1
    49    23    51    1
    50    23    52    1
    51    24    53    1
    52    24    54    1
    53    24    55    1
    54    25    26    1
    55    25    56    1
    56    25    57    1
    57    26    27    1
    58    26    28    1
    59    28    58    1
    60    28    59    1
    61    28    60    1
@<TRIPOS>SUBSTRUCTURE
     1 ZINC001289410668        1 TEMP              0 ****  ****    0 ROOT


##########                                Name:    ZINC001344051361
##########                DOCK_Rotatable_Bonds:                   8
##########                         Heavy_Atoms:                  28
##########                    Molecular_Weight:             379.456
##########                DOCK_Rotatable_Bonds:                   8
##########                       Formal_Charge:          -0.0100006
##########                     HBond_Acceptors:                   5
##########                        HBond_Donors:                   0
##########                         Heavy_Atoms:                  28
##########                          Grid_Score:          -37.103157
##########                     Grid_vdw_energy:          -37.067497
##########                      Grid_es_energy:           -0.035658
##########           Internal_energy_repulsive:           19.440166

@<TRIPOS>MOLECULE
ZINC001344051361
 53 56 1 0 0
SMALL
USER_CHARGES


@<TRIPOS>ATOM
      1 O1         -1.8555    0.6369   50.1896 O.2     1  ZINC001344051361   -0.4800
      2 C2         -2.4446    1.4366   49.5017 C.2     1  ZINC001344051361    0.4800
      3 O3         -3.7784    1.3574   49.3730 O.3     1  ZINC001344051361   -0.3500
      4 C4         -4.5420    2.5549   49.6755 C.3     1  ZINC001344051361    0.0700
      5 C5         -5.5137    2.2643   50.8211 C.3     1  ZINC001344051361   -0.1000
      6 H6         -4.9538    1.9524   51.7028 H       1  ZINC001344051361    0.0900
      7 C7         -6.3142    3.5278   51.1448 C.3     1  ZINC001344051361   -0.1200
      8 C8         -7.2632    3.2474   52.3122 C.3     1  ZINC001344051361   -0.1300
      9 C9         -8.2454    2.1419   51.9125 C.3     1  ZINC001344051361    0.0800
     10 N10        -7.4813    0.9709   51.4612 N.am    1  ZINC001344051361   -0.6100
     11 C11        -7.6988   -0.2425   52.0061 C.2     1  ZINC001344051361    0.5600
     12 O12        -7.0600   -1.2035   51.6241 O.2     1  ZINC001344051361   -0.5300
     13 C13        -8.7141   -0.4046   53.0685 C.ar    1  ZINC001344051361   -0.1300
     14 C14        -8.3482   -0.2919   54.4107 C.ar    1  ZINC001344051361   -0.1000
     15 C15        -9.3007   -0.4438   55.3972 C.ar    1  ZINC001344051361   -0.1300
     16 C16       -10.6159   -0.7078   55.0584 C.ar    1  ZINC001344051361   -0.0900
     17 C17       -10.9851   -0.8212   53.7299 C.ar    1  ZINC001344051361   -0.1300
     18 C18       -10.0437   -0.6652   52.7334 C.ar    1  ZINC001344051361   -0.0600
     19 C19        -6.4756    1.1471   50.4047 C.3     1  ZINC001344051361    0.1200
     20 C20        -1.6827    2.5267   48.7931 C.3     1  ZINC001344051361    0.0200
     21 O21        -2.0126    2.7137   47.4153 O.3     1  ZINC001344051361   -0.2500
     22 C22        -1.7602    1.6765   46.5742 C.ar    1  ZINC001344051361    0.1200
     23 C23        -2.2559    1.6962   45.2785 C.ar    1  ZINC001344051361   -0.2000
     24 C24        -1.9975    0.6409   44.4253 C.ar    1  ZINC001344051361   -0.0800
     25 C25        -1.2460   -0.4346   44.8618 C.ar    1  ZINC001344051361   -0.1500
     26 C26        -0.7512   -0.4567   46.1527 C.ar    1  ZINC001344051361   -0.0800
     27 C27        -1.0016    0.5990   47.0078 C.ar    1  ZINC001344051361   -0.1400
     28 C28        -1.3069    3.7681   49.6046 C.3     1  ZINC001344051361   -0.1700
     29 C29        -0.2286    2.7574   49.2089 C.3     1  ZINC001344051361   -0.1100
     30 H30        -3.8623    3.3546   49.9697 H       1  ZINC001344051361    0.0800
     31 H31        -5.1026    2.8610   48.7924 H       1  ZINC001344051361    0.0800
     32 H32        -5.6300    4.3312   51.4179 H       1  ZINC001344051361    0.0700
     33 H33        -6.8925    3.8254   50.2702 H       1  ZINC001344051361    0.0700
     34 H34        -6.6873    2.9259   53.1801 H       1  ZINC001344051361    0.0700
     35 H35        -7.8161    4.1542   52.5575 H       1  ZINC001344051361    0.0800
     36 H36        -8.8583    1.8694   52.7716 H       1  ZINC001344051361    0.1100
     37 H37        -8.8839    2.4957   51.1030 H       1  ZINC001344051361    0.0700
     38 H38        -7.3218   -0.0866   54.6765 H       1  ZINC001344051361    0.1400
     39 H39        -9.0189   -0.3568   56.4362 H       1  ZINC001344051361    0.1300
     40 H40       -11.3576   -0.8262   55.8345 H       1  ZINC001344051361    0.1300
     41 H41       -12.0133   -1.0277   53.4722 H       1  ZINC001344051361    0.1300
     42 H42       -10.3333   -0.7537   51.6967 H       1  ZINC001344051361    0.1300
     43 H43        -6.9694    1.4198   49.4720 H       1  ZINC001344051361    0.0700
     44 H44        -5.9214    0.2183   50.2691 H       1  ZINC001344051361    0.1000
     45 H45        -2.8436    2.5356   44.9374 H       1  ZINC001344051361    0.1300
     46 H46        -2.3832    0.6557   43.4166 H       1  ZINC001344051361    0.1300
     47 H47        -1.0454   -1.2588   44.1934 H       1  ZINC001344051361    0.1300
     48 H48        -0.1648   -1.2980   46.4914 H       1  ZINC001344051361    0.1300
     49 H49        -0.6149    0.5813   48.0161 H       1  ZINC001344051361    0.1300
     50 H50        -1.3112    4.7277   49.0877 H       1  ZINC001344051361    0.1200
     51 H51        -1.6106    3.7963   50.6511 H       1  ZINC001344051361    0.1200
     52 H52         0.1772    2.1206   49.9951 H       1  ZINC001344051361    0.1200
     53 H53         0.4765    3.0521   48.4317 H       1  ZINC001344051361    0.1200
@<TRIPOS>BOND
     1     1     2    2
     2     2     3    1
     3     2    20    1
     4     3     4    1
     5     4     5    1
     6     4    30    1
     7     4    31    1
     8     5     6    1
     9     5    19    1
    10     5     7    1
    11     7     8    1
    12     7    32    1
    13     7    33    1
    14     8     9    1
    15     8    34    1
    16     8    35    1
    17     9    10    1
    18     9    36    1
    19     9    37    1
    20    10    11   am
    21    10    19    1
    22    11    12    2
    23    11    13    1
    24    13    18   ar
    25    13    14   ar
    26    14    15   ar
    27    14    38    1
    28    15    16   ar
    29    15    39    1
    30    16    17   ar
    31    16    40    1
    32    17    18   ar
    33    17    41    1
    34    18    42    1
    35    19    43    1
    36    19    44    1
    37    20    29    1
    38    20    21    1
    39    20    28    1
    40    21    22    1
    41    22    27   ar
    42    22    23   ar
    43    23    24   ar
    44    23    45    1
    45    24    25   ar
    46    24    46    1
    47    25    26   ar
    48    25    47    1
    49    26    27   ar
    50    26    48    1
    51    27    49    1
    52    28    29    1
    53    28    50    1
    54    28    51    1
    55    29    52    1
    56    29    53    1
@<TRIPOS>SUBSTRUCTURE
     1 ZINC001344051361        1 TEMP              0 ****  ****    0 ROOT


##########                                Name:    ZINC000464139057
##########                DOCK_Rotatable_Bonds:                   9
##########                         Heavy_Atoms:                  30
##########                    Molecular_Weight:              413.56
##########                DOCK_Rotatable_Bonds:                   9
##########                       Formal_Charge:         2.38419e-07
##########                     HBond_Acceptors:                   6
##########                        HBond_Donors:                   2
##########                         Heavy_Atoms:                  30
##########                          Grid_Score:          -36.985172
##########                     Grid_vdw_energy:          -36.613487
##########                      Grid_es_energy:           -0.371683
##########           Internal_energy_repulsive:           10.993942

@<TRIPOS>MOLECULE
ZINC000464139057
 65 67 1 0 0
SMALL
USER_CHARGES


@<TRIPOS>ATOM
      1 C1        -12.4697   -3.5790   56.8252 C.3     1  ZINC000464139057   -0.1800
      2 C2        -11.4143   -3.6390   57.9313 C.3     1  ZINC000464139057    0.0700
      3 H3        -10.8673   -4.5793   57.8619 H       1  ZINC000464139057    0.1200
      4 C4        -10.4394   -2.4666   57.7729 C.3     1  ZINC000464139057    0.0800
      5 N5        -11.1654   -1.2180   58.0545 N.am    1  ZINC000464139057   -0.6100
      6 C6        -11.1153   -0.1782   57.1984 C.2     1  ZINC000464139057    0.5600
      7 O7        -11.7219    0.8448   57.4487 O.2     1  ZINC000464139057   -0.5300
      8 C8        -10.3225   -0.2821   55.9548 C.ar    1  ZINC000464139057   -0.1200
      9 C9        -10.8996   -0.8069   54.7973 C.ar    1  ZINC000464139057   -0.0900
     10 C10       -10.1545   -0.9006   53.6401 C.ar    1  ZINC000464139057   -0.1000
     11 C11        -8.8377   -0.4763   53.6254 C.ar    1  ZINC000464139057   -0.0900
     12 C12        -8.0296   -0.5822   52.3578 C.3     1  ZINC000464139057    0.1800
     13 N13        -7.5620    0.7492   51.9641 N.am    1  ZINC000464139057   -0.7400
     14 C14        -6.7997    0.8972   50.8625 C.2     1  ZINC000464139057    0.7000
     15 O15        -6.5014   -0.0740   50.1946 O.2     1  ZINC000464139057   -0.5900
     16 N16        -6.3682    2.1218   50.5012 N.am    1  ZINC000464139057   -0.7500
     17 C17        -5.5382    2.2825   49.3048 C.3     1  ZINC000464139057    0.1400
     18 C18        -4.2885    3.0923   49.6561 C.3     1  ZINC000464139057   -0.0900
     19 C19        -3.0597    2.2639   49.3826 C.2     1  ZINC000464139057   -0.1200
     20 C20        -2.7446    1.9620   48.1631 C.2     1  ZINC000464139057   -0.1500
     21 C21        -1.5131    1.1306   47.8743 C.3     1  ZINC000464139057   -0.0900
     22 C22        -0.2727    1.9887   48.1326 C.3     1  ZINC000464139057   -0.1100
     23 C23         0.1229    1.9354   49.5976 C.3     1  ZINC000464139057   -0.1200
     24 C24        -0.8904    2.5816   50.5257 C.3     1  ZINC000464139057   -0.1100
     25 C25        -2.1969    1.7942   50.5343 C.3     1  ZINC000464139057   -0.0800
     26 C26        -8.2596    0.0453   54.7692 C.ar    1  ZINC000464139057   -0.1000
     27 C27        -8.9953    0.1495   55.9315 C.ar    1  ZINC000464139057   -0.0700
     28 C28       -11.9478   -1.1384   59.2982 C.3     1  ZINC000464139057    0.0700
     29 C29       -12.8492   -2.3754   59.3822 C.3     1  ZINC000464139057    0.0700
     30 H30       -13.6063   -2.3281   58.5996 H       1  ZINC000464139057    0.0700
     31 C31       -13.5313   -2.4186   60.7512 C.3     1  ZINC000464139057   -0.1500
     32 O32       -12.0539   -3.5515   59.2068 O.3     1  ZINC000464139057   -0.3700
     33 H33       -13.0163   -2.6385   56.8951 H       1  ZINC000464139057    0.0600
     34 H34       -11.9812   -3.6440   55.8530 H       1  ZINC000464139057    0.0700
     35 H35       -13.1636   -4.4119   56.9396 H       1  ZINC000464139057    0.0700
     36 H36        -9.6139   -2.5780   58.4760 H       1  ZINC000464139057    0.0800
     37 H37       -10.0537   -2.4451   56.7536 H       1  ZINC000464139057    0.1000
     38 H38       -11.9272   -1.1392   54.8078 H       1  ZINC000464139057    0.1300
     39 H39       -10.5999   -1.3065   52.7438 H       1  ZINC000464139057    0.1300
     40 H40        -7.1718   -1.2331   52.5270 H       1  ZINC000464139057    0.0800
     41 H41        -8.6506   -0.9984   51.5646 H       1  ZINC000464139057    0.0800
     42 H42        -7.8010    1.5242   52.4962 H       1  ZINC000464139057    0.4000
     43 H43        -6.6072    2.8968   51.0334 H       1  ZINC000464139057    0.4000
     44 H44        -5.2426    1.3014   48.9331 H       1  ZINC000464139057    0.0700
     45 H45        -6.1063    2.8064   48.5361 H       1  ZINC000464139057    0.0700
     46 H46        -4.2592    3.9970   49.0488 H       1  ZINC000464139057    0.0700
     47 H47        -4.3161    3.3638   50.7114 H       1  ZINC000464139057    0.0800
     48 H48        -3.3642    2.3053   47.3476 H       1  ZINC000464139057    0.1100
     49 H49        -1.4981    0.2593   48.5291 H       1  ZINC000464139057    0.0700
     50 H50        -1.5250    0.8085   46.8331 H       1  ZINC000464139057    0.0700
     51 H51         0.5527    1.6186   47.5244 H       1  ZINC000464139057    0.0600
     52 H52        -0.4866    3.0211   47.8559 H       1  ZINC000464139057    0.0600
     53 H53         0.2456    0.8919   49.8878 H       1  ZINC000464139057    0.0600
     54 H54         1.0799    2.4428   49.7190 H       1  ZINC000464139057    0.0600
     55 H55        -0.4830    2.6126   51.5362 H       1  ZINC000464139057    0.0600
     56 H56        -1.0886    3.5989   50.1882 H       1  ZINC000464139057    0.0600
     57 H57        -2.7200    1.9635   51.4754 H       1  ZINC000464139057    0.0700
     58 H58        -1.9843    0.7315   50.4170 H       1  ZINC000464139057    0.0700
     59 H59        -7.2313    0.3750   54.7509 H       1  ZINC000464139057    0.1300
     60 H60        -8.5431    0.5570   56.8236 H       1  ZINC000464139057    0.1300
     61 H61       -11.2742   -1.1160   60.1548 H       1  ZINC000464139057    0.0800
     62 H62       -12.5610   -0.2372   59.2890 H       1  ZINC000464139057    0.1000
     63 H63       -14.1341   -1.5205   60.8852 H       1  ZINC000464139057    0.0800
     64 H64       -14.1720   -3.2984   60.8102 H       1  ZINC000464139057    0.0700
     65 H65       -12.7737   -2.4677   61.5332 H       1  ZINC000464139057    0.0700
@<TRIPOS>BOND
     1     1     2    1
     2     1    33    1
     3     1    34    1
     4     1    35    1
     5     2     3    1
     6     2    32    1
     7     2     4    1
     8     4     5    1
     9     4    36    1
    10     4    37    1
    11     5     6   am
    12     5    28    1
    13     6     7    2
    14     6     8    1
    15     8    27   ar
    16     8     9   ar
    17     9    10   ar
    18     9    38    1
    19    10    11   ar
    20    10    39    1
    21    11    12    1
    22    11    26   ar
    23    12    13    1
    24    12    40    1
    25    12    41    1
    26    13    14   am
    27    13    42    1
    28    14    15    2
    29    14    16   am
    30    16    17    1
    31    16    43    1
    32    17    18    1
    33    17    44    1
    34    17    45    1
    35    18    19    1
    36    18    46    1
    37    18    47    1
    38    19    25    1
    39    19    20    2
    40    20    21    1
    41    20    48    1
    42    21    22    1
    43    21    49    1
    44    21    50    1
    45    22    23    1
    46    22    51    1
    47    22    52    1
    48    23    24    1
    49    23    53    1
    50    23    54    1
    51    24    25    1
    52    24    55    1
    53    24    56    1
    54    25    57    1
    55    25    58    1
    56    26    27   ar
    57    26    59    1
    58    27    60    1
    59    28    29    1
    60    28    61    1
    61    28    62    1
    62    29    30    1
    63    29    31    1
    64    29    32    1
    65    31    63    1
    66    31    64    1
    67    31    65    1
@<TRIPOS>SUBSTRUCTURE
     1 ZINC000464139057        1 TEMP              0 ****  ****    0 ROOT


##########                                Name:    ZINC000428266315
##########                DOCK_Rotatable_Bonds:                  10
##########                         Heavy_Atoms:                  30
##########                    Molecular_Weight:             423.438
##########                DOCK_Rotatable_Bonds:                  10
##########                       Formal_Charge:          0.00999977
##########                     HBond_Acceptors:                  10
##########                        HBond_Donors:                   0
##########                         Heavy_Atoms:                  30
##########                          Grid_Score:          -36.937611
##########                     Grid_vdw_energy:          -35.919182
##########                      Grid_es_energy:           -1.018427
##########           Internal_energy_repulsive:           15.273616

@<TRIPOS>MOLECULE
ZINC000428266315
 54 56 1 0 0
SMALL
USER_CHARGES


@<TRIPOS>ATOM
      1 C1        -10.8379   -3.7553   57.4188 C.3     1  ZINC000428266315   -0.1500
      2 C2        -11.6300   -2.8208   56.5021 C.3     1  ZINC000428266315    0.0600
      3 O3        -10.7248   -1.9944   55.7674 O.3     1  ZINC000428266315   -0.3700
      4 C4        -11.3620   -1.1278   54.8267 C.3     1  ZINC000428266315    0.1800
      5 H5        -12.0165   -1.7120   54.1799 H       1  ZINC000428266315    0.0900
      6 C6        -12.1882   -0.0807   55.5763 C.3     1  ZINC000428266315   -0.1700
      7 C7        -10.3154   -0.4374   53.9907 C.2     1  ZINC000428266315    0.1700
      8 N8        -10.4902    0.0767   52.8102 N.2     1  ZINC000428266315   -0.3500
      9 O9         -9.4540    0.5597   52.4049 O.3     1  ZINC000428266315    0.0800
     10 C10        -8.4904    0.3945   53.3161 C.2     1  ZINC000428266315    0.1900
     11 C11        -7.0585    0.8498   53.2007 C.3     1  ZINC000428266315    0.1500
     12 N12        -6.4400    0.2269   52.0227 N.3     1  ZINC000428266315   -0.5300
     13 C13        -6.8704   -1.1703   51.8791 C.3     1  ZINC000428266315    0.0200
     14 C14        -6.7330    0.9958   50.8058 C.3     1  ZINC000428266315    0.1400
     15 C15        -5.6276    1.9906   50.5620 C.2     1  ZINC000428266315   -0.2300
     16 C16        -4.3293    1.6949   50.3211 C.2     1  ZINC000428266315    0.0800
     17 N17        -3.6658    2.8585   50.1572 N.pl3   1  ZINC000428266315   -0.3700
     18 C18        -2.2352    3.0030   49.8767 C.3     1  ZINC000428266315    0.1700
     19 C19        -1.8924    2.2531   48.6154 C.ar    1  ZINC000428266315   -0.0800
     20 C20        -2.7497    2.2945   47.5318 C.ar    1  ZINC000428266315   -0.1000
     21 C21        -2.4352    1.6066   46.3748 C.ar    1  ZINC000428266315   -0.0700
     22 C22        -1.2630    0.8776   46.3012 C.ar    1  ZINC000428266315   -0.1700
     23 C23        -0.9203    0.1272   45.0400 C.3     1  ZINC000428266315    0.5100
     24 F24        -1.5480    0.7378   43.9489 F       1  ZINC000428266315   -0.1700
     25 F25         0.4656    0.1434   44.8497 F       1  ZINC000428266315   -0.1800
     26 F26        -1.3604   -1.1961   45.1506 F       1  ZINC000428266315   -0.1800
     27 C27        -0.4049    0.8372   47.3843 C.ar    1  ZINC000428266315   -0.0700
     28 C28        -0.7176    1.5283   48.5399 C.ar    1  ZINC000428266315   -0.0800
     29 N29        -4.5870    3.9040   50.3022 N.2     1  ZINC000428266315   -0.2900
     30 C30        -5.7633    3.3825   50.5387 C.2     1  ZINC000428266315    0.0600
     31 N31        -9.0303   -0.2350   54.3318 N.2     1  ZINC000428266315   -0.4600
     32 H32       -11.5283   -4.3856   57.9794 H       1  ZINC000428266315    0.0700
     33 H33       -10.1799   -4.3824   56.8174 H       1  ZINC000428266315    0.0600
     34 H34       -10.2412   -3.1634   58.1129 H       1  ZINC000428266315    0.0600
     35 H35       -12.2268   -3.4126   55.8081 H       1  ZINC000428266315    0.0500
     36 H36       -12.2880   -2.1936   57.1037 H       1  ZINC000428266315    0.0500
     37 H37       -11.5338    0.5035   56.2232 H       1  ZINC000428266315    0.0700
     38 H38       -12.6743    0.5804   54.8588 H       1  ZINC000428266315    0.0700
     39 H39       -12.9453   -0.5801   56.1810 H       1  ZINC000428266315    0.0700
     40 H40        -7.0293    1.9343   53.0956 H       1  ZINC000428266315    0.0800
     41 H41        -6.5107    0.5567   54.0963 H       1  ZINC000428266315    0.1200
     42 H42        -7.9539   -1.2068   51.7655 H       1  ZINC000428266315    0.0400
     43 H43        -6.3980   -1.6074   50.9995 H       1  ZINC000428266315    0.0800
     44 H44        -6.5789   -1.7332   52.7658 H       1  ZINC000428266315    0.0600
     45 H45        -6.8051    0.3172   49.9558 H       1  ZINC000428266315    0.0500
     46 H46        -7.6777    1.5253   50.9293 H       1  ZINC000428266315    0.0900
     47 H47        -3.9007    0.7049   50.2693 H       1  ZINC000428266315    0.1700
     48 H48        -1.9948    4.0584   49.7487 H       1  ZINC000428266315    0.1000
     49 H49        -1.6592    2.5975   50.7085 H       1  ZINC000428266315    0.1100
     50 H50        -3.6655    2.8641   47.5894 H       1  ZINC000428266315    0.1300
     51 H51        -3.1053    1.6385   45.5285 H       1  ZINC000428266315    0.1400
     52 H52         0.5110    0.2679   47.3266 H       1  ZINC000428266315    0.1400
     53 H53        -0.0473    1.4968   49.3861 H       1  ZINC000428266315    0.1400
     54 H54        -6.6796    3.9321   50.6965 H       1  ZINC000428266315    0.1800
@<TRIPOS>BOND
     1     1     2    1
     2     1    32    1
     3     1    33    1
     4     1    34    1
     5     2     3    1
     6     2    35    1
     7     2    36    1
     8     3     4    1
     9     4     5    1
    10     4     6    1
    11     4     7    1
    12     6    37    1
    13     6    38    1
    14     6    39    1
    15     7    31    1
    16     7     8    2
    17     8     9    1
    18     9    10    1
    19    10    11    1
    20    10    31    2
    21    11    12    1
    22    11    40    1
    23    11    41    1
    24    12    13    1
    25    12    14    1
    26    13    42    1
    27    13    43    1
    28    13    44    1
    29    14    15    1
    30    14    45    1
    31    14    46    1
    32    15    30    1
    33    15    16    2
    34    16    17    1
    35    16    47    1
    36    17    18    1
    37    17    29    1
    38    18    19    1
    39    18    48    1
    40    18    49    1
    41    19    28   ar
    42    19    20   ar
    43    20    21   ar
    44    20    50    1
    45    21    22   ar
    46    21    51    1
    47    22    23    1
    48    22    27   ar
    49    23    24    1
    50    23    25    1
    51    23    26    1
    52    27    28   ar
    53    27    52    1
    54    28    53    1
    55    29    30    2
    56    30    54    1
@<TRIPOS>SUBSTRUCTURE
     1 ZINC000428266315        1 TEMP              0 ****  ****    0 ROOT


##########                                Name:    ZINC001127302705
##########                DOCK_Rotatable_Bonds:                   9
##########                         Heavy_Atoms:                  28
##########                    Molecular_Weight:             398.892
##########                DOCK_Rotatable_Bonds:                   9
##########                       Formal_Charge:          -0.0200002
##########                     HBond_Acceptors:                   7
##########                        HBond_Donors:                   1
##########                         Heavy_Atoms:                  28
##########                          Grid_Score:          -36.912476
##########                     Grid_vdw_energy:          -35.590317
##########                      Grid_es_energy:           -1.322159
##########           Internal_energy_repulsive:           25.359005

@<TRIPOS>MOLECULE
ZINC001127302705
 51 53 1 0 0
SMALL
USER_CHARGES


@<TRIPOS>ATOM
      1 C1        -10.1107    0.3604   62.1810 C.3     1  ZINC001127302705   -0.1500
      2 C2         -9.3816    0.5487   60.8490 C.3     1  ZINC001127302705   -0.1400
      3 C3         -9.4642   -0.7442   60.0352 C.3     1  ZINC001127302705    0.1800
      4 C4         -8.3276   -1.6810   60.4493 C.3     1  ZINC001127302705   -0.1600
      5 C5        -10.8084   -1.4265   60.2966 C.3     1  ZINC001127302705    0.0700
      6 O6        -11.0150   -2.4580   59.3294 O.3     1  ZINC001127302705   -0.2800
      7 C7        -12.2456   -3.0286   59.2906 C.ar    1  ZINC001127302705    0.3400
      8 N8        -13.0929   -2.8263   60.2852 N.ar    1  ZINC001127302705   -0.5300
      9 C9        -14.2992   -3.3617   60.2874 C.ar    1  ZINC001127302705    0.1400
     10 C10       -14.7220   -4.1587   59.2426 C.ar    1  ZINC001127302705   -0.2000
     11 C11       -13.8627   -4.3961   58.1784 C.ar    1  ZINC001127302705   -0.0300
     12 C12       -12.6058   -3.8157   58.2026 C.ar    1  ZINC001127302705   -0.1100
     13 Cl13      -11.4900   -4.0782   56.8988 Cl      1  ZINC001127302705   -0.0400
     14 N14        -9.3443   -0.4319   58.6088 N.am    1  ZINC001127302705   -0.7100
     15 C15        -8.3065    0.3048   58.1651 C.2     1  ZINC001127302705    0.6200
     16 O16        -7.4691    0.7088   58.9483 O.2     1  ZINC001127302705   -0.5200
     17 C17        -8.1866    0.6211   56.7274 C.2     1  ZINC001127302705   -0.0200
     18 N18        -9.0089    0.2418   55.7695 N.2     1  ZINC001127302705   -0.2500
     19 N19        -8.6047    0.6936   54.6368 N.pl3   1  ZINC001127302705   -0.2800
     20 C20        -9.2775    0.4657   53.3556 C.3     1  ZINC001127302705    0.1600
     21 C21        -8.2690    0.5415   52.2384 C.ar    1  ZINC001127302705   -0.1200
     22 C22        -7.5466   -0.5818   51.8819 C.ar    1  ZINC001127302705   -0.1000
     23 C23        -6.6215   -0.5122   50.8571 C.ar    1  ZINC001127302705   -0.1200
     24 C24        -6.4191    0.6806   50.1885 C.ar    1  ZINC001127302705   -0.1100
     25 C25        -7.1422    1.8038   50.5443 C.ar    1  ZINC001127302705   -0.1200
     26 C26        -8.0704    1.7330   51.5663 C.ar    1  ZINC001127302705   -0.0800
     27 C27        -7.4707    1.4089   54.7972 C.2     1  ZINC001127302705   -0.0200
     28 C28        -7.1706    1.3943   56.1171 C.2     1  ZINC001127302705   -0.1800
     29 H29        -9.6436   -0.4510   62.7393 H       1  ZINC001127302705    0.0500
     30 H30       -10.0519    1.2814   62.7607 H       1  ZINC001127302705    0.0600
     31 H31       -11.1560    0.1164   61.9916 H       1  ZINC001127302705    0.0500
     32 H32        -9.8487    1.3599   60.2906 H       1  ZINC001127302705    0.0900
     33 H33        -8.3362    0.7927   61.0384 H       1  ZINC001127302705    0.0800
     34 H34        -8.4168   -1.9134   61.5106 H       1  ZINC001127302705    0.0700
     35 H35        -8.3864   -2.6021   59.8695 H       1  ZINC001127302705    0.0500
     36 H36        -7.3699   -1.1950   60.2630 H       1  ZINC001127302705    0.0800
     37 H37       -10.8071   -1.8608   61.2963 H       1  ZINC001127302705    0.0800
     38 H38       -11.6097   -0.6916   60.2207 H       1  ZINC001127302705    0.0700
     39 H39       -14.9642   -3.1741   61.1175 H       1  ZINC001127302705    0.1700
     40 H40       -15.7107   -4.5932   59.2531 H       1  ZINC001127302705    0.1500
     41 H41       -14.1690   -5.0159   57.3487 H       1  ZINC001127302705    0.1500
     42 H42       -10.0118   -0.7553   57.9838 H       1  ZINC001127302705    0.4100
     43 H43        -9.7422   -0.5202   53.3595 H       1  ZINC001127302705    0.1000
     44 H44       -10.0427    1.2275   53.2065 H       1  ZINC001127302705    0.1100
     45 H45        -7.7047   -1.5138   52.4042 H       1  ZINC001127302705    0.1200
     46 H46        -6.0566   -1.3898   50.5790 H       1  ZINC001127302705    0.1300
     47 H47        -5.6958    0.7352   49.3882 H       1  ZINC001127302705    0.1200
     48 H48        -6.9838    2.7358   50.0223 H       1  ZINC001127302705    0.1300
     49 H49        -8.6352    2.6105   51.8444 H       1  ZINC001127302705    0.1300
     50 H50        -6.9103    1.9045   54.0183 H       1  ZINC001127302705    0.1800
     51 H51        -6.3289    1.8668   56.6014 H       1  ZINC001127302705    0.1600
@<TRIPOS>BOND
     1     1     2    1
     2     1    29    1
     3     1    30    1
     4     1    31    1
     5     2     3    1
     6     2    32    1
     7     2    33    1
     8     3     4    1
     9     3     5    1
    10     3    14    1
    11     4    34    1
    12     4    35    1
    13     4    36    1
    14     5     6    1
    15     5    37    1
    16     5    38    1
    17     6     7    1
    18     7    12   ar
    19     7     8   ar
    20     8     9   ar
    21     9    10   ar
    22     9    39    1
    23    10    11   ar
    24    10    40    1
    25    11    12   ar
    26    11    41    1
    27    12    13    1
    28    14    15   am
    29    14    42    1
    30    15    16    2
    31    15    17    1
    32    17    28    1
    33    17    18    2
    34    18    19    1
    35    19    20    1
    36    19    27    1
    37    20    21    1
    38    20    43    1
    39    20    44    1
    40    21    26   ar
    41    21    22   ar
    42    22    23   ar
    43    22    45    1
    44    23    24   ar
    45    23    46    1
    46    24    25   ar
    47    24    47    1
    48    25    26   ar
    49    25    48    1
    50    26    49    1
    51    27    28    2
    52    27    50    1
    53    28    51    1
@<TRIPOS>SUBSTRUCTURE
     1 ZINC001127302705        1 TEMP              0 ****  ****    0 ROOT


##########                                Name:    ZINC000284209281
##########                DOCK_Rotatable_Bonds:                   8
##########                         Heavy_Atoms:                  26
##########                    Molecular_Weight:             353.424
##########                DOCK_Rotatable_Bonds:                   8
##########                       Formal_Charge:          0.00999954
##########                     HBond_Acceptors:                   7
##########                        HBond_Donors:                   1
##########                         Heavy_Atoms:                  26
##########                          Grid_Score:          -36.832294
##########                     Grid_vdw_energy:          -34.845463
##########                      Grid_es_energy:           -1.986833
##########           Internal_energy_repulsive:           18.404854

@<TRIPOS>MOLECULE
ZINC000284209281
 49 51 1 0 0
SMALL
USER_CHARGES


@<TRIPOS>ATOM
      1 O1         -6.4952    0.6040   49.4769 O.2     1  <0>        -0.5100
      2 C2         -5.9383    1.1769   50.3903 C.2     1  <0>         0.5100
      3 N3         -6.0192    0.6859   51.6428 N.am    1  <0>        -0.7000
      4 C4         -6.7844   -0.5360   51.9026 C.3     1  <0>         0.1200
      5 C5         -8.2589   -0.1811   52.1048 C.3     1  <0>        -0.1000
      6 C6         -8.5711   -0.1525   53.5787 C.ar    1  <0>        -0.0400
      7 C7         -7.6650    0.3750   54.4861 C.ar    1  <0>        -0.1700
      8 C8         -7.9858    0.3842   55.8303 C.ar    1  <0>         0.1000
      9 N9         -9.1370   -0.1011   56.2523 N.ar    1  <0>        -0.4900
     10 C10       -10.0225   -0.6103   55.4183 C.ar    1  <0>         0.1000
     11 C11        -9.7736   -0.6478   54.0593 C.ar    1  <0>        -0.1700
     12 C12        -5.1577    2.4234   50.1253 C.2     1  <0>         0.5100
     13 O13        -5.7361    3.4743   49.9418 O.2     1  <0>        -0.5200
     14 N14        -3.8110    2.3804   50.0898 N.am    1  <0>        -0.5800
     15 C15        -3.0902    1.1163   50.3035 C.3     1  <0>         0.0800
     16 C16        -2.0940    0.9239   49.1550 C.3     1  <0>         0.0400
     17 N17        -1.2408    2.1147   49.0465 N.3     1  <0>        -0.5300
     18 C18        -0.1619    1.9023   48.0723 C.3     1  <0>         0.1000
     19 C19        -0.7492    1.4295   46.7675 C.ar    1  <0>         0.1300
     20 C20        -0.8777    0.0747   46.5276 C.ar    1  <0>        -0.1500
     21 C21        -1.4199   -0.3500   45.3240 C.ar    1  <0>        -0.0700
     22 C22        -1.8139    0.6085   44.4032 C.ar    1  <0>        -0.1700
     23 C23        -1.6544    1.9461   44.7132 C.ar    1  <0>         0.1000
     24 N24        -1.1396    2.3135   45.8701 N.ar    1  <0>        -0.4800
     25 C25        -2.0298    3.3064   48.7067 C.3     1  <0>         0.0400
     26 C26        -3.0235    3.5952   49.8307 C.3     1  <0>         0.1100
     27 H27        -5.5706    1.1416   52.3722 H       1  <0>         0.4100
     28 H28        -6.6867   -1.2133   51.0541 H       1  <0>         0.0800
     29 H29        -6.4009   -1.0209   52.8004 H       1  <0>         0.0800
     30 H30        -8.4593    0.7990   51.6719 H       1  <0>         0.0900
     31 H31        -8.8830   -0.9290   51.6155 H       1  <0>         0.0900
     32 H32        -6.7202    0.7733   54.1466 H       1  <0>         0.1400
     33 H33        -7.2855    0.7933   56.5434 H       1  <0>         0.1600
     34 H34       -10.9546   -0.9988   55.8012 H       1  <0>         0.1600
     35 H35       -10.5029   -1.0658   53.3812 H       1  <0>         0.1400
     36 H36        -2.5532    1.1566   51.2511 H       1  <0>         0.0800
     37 H37        -3.7989    0.2882   50.3160 H       1  <0>         0.1400
     38 H38        -1.4745    0.0494   49.3536 H       1  <0>         0.0900
     39 H39        -2.6383    0.7801   48.2216 H       1  <0>         0.0400
     40 H40         0.3726    2.8387   47.9122 H       1  <0>         0.0900
     41 H41         0.5289    1.1503   48.4536 H       1  <0>         0.0600
     42 H42        -0.5597   -0.6443   47.2680 H       1  <0>         0.1400
     43 H43        -1.5321   -1.4024   45.1089 H       1  <0>         0.1400
     44 H44        -2.2397    0.3139   43.4555 H       1  <0>         0.1400
     45 H45        -1.9586    2.6989   44.0011 H       1  <0>         0.1600
     46 H46        -1.3636    4.1597   48.5801 H       1  <0>         0.1000
     47 H47        -2.5750    3.1295   47.7795 H       1  <0>         0.0400
     48 H48        -3.6871    4.4072   49.5330 H       1  <0>         0.1000
     49 H49        -2.4825    3.8736   50.7351 H       1  <0>         0.0800
@<TRIPOS>BOND
     1     1     2    2
     2     2     3   am
     3     2    12    1
     4     3     4    1
     5     3    27    1
     6     4     5    1
     7     4    28    1
     8     4    29    1
     9     5     6    1
    10     5    30    1
    11     5    31    1
    12     6    11   ar
    13     6     7   ar
    14     7     8   ar
    15     7    32    1
    16     8     9   ar
    17     8    33    1
    18     9    10   ar
    19    10    11   ar
    20    10    34    1
    21    11    35    1
    22    12    13    2
    23    12    14   am
    24    14    26    1
    25    14    15    1
    26    15    16    1
    27    15    36    1
    28    15    37    1
    29    16    17    1
    30    16    38    1
    31    16    39    1
    32    17    18    1
    33    17    25    1
    34    18    19    1
    35    18    40    1
    36    18    41    1
    37    19    24   ar
    38    19    20   ar
    39    20    21   ar
    40    20    42    1
    41    21    22   ar
    42    21    43    1
    43    22    23   ar
    44    22    44    1
    45    23    24   ar
    46    23    45    1
    47    25    26    1
    48    25    46    1
    49    25    47    1
    50    26    48    1
    51    26    49    1
@<TRIPOS>SUBSTRUCTURE
     1 <0>         1 TEMP              0 ****  ****    0 ROOT


##########                                Name:    ZINC000487792031
##########                DOCK_Rotatable_Bonds:                  12
##########                         Heavy_Atoms:                  29
##########                    Molecular_Weight:             414.569
##########                DOCK_Rotatable_Bonds:                  12
##########                       Formal_Charge:          -0.0100001
##########                     HBond_Acceptors:                   6
##########                        HBond_Donors:                   1
##########                         Heavy_Atoms:                  29
##########                          Grid_Score:          -36.683502
##########                     Grid_vdw_energy:          -35.798424
##########                      Grid_es_energy:           -0.885078
##########           Internal_energy_repulsive:           16.138052

@<TRIPOS>MOLECULE
ZINC000487792031
 59 60 1 0 0
SMALL
USER_CHARGES


@<TRIPOS>ATOM
      1 C1          1.7388    1.2654   51.4228 C.2     1  ZINC000487792031   -0.1900
      2 C2          0.5823    1.8662   51.2905 C.2     1  ZINC000487792031   -0.1500
      3 C3         -0.5785    1.1368   50.6648 C.3     1  ZINC000487792031   -0.0900
      4 C4         -0.5440    1.3296   49.1475 C.3     1  ZINC000487792031   -0.0900
      5 C5         -1.7437    0.6205   48.5158 C.3     1  ZINC000487792031   -0.0700
      6 H6         -1.9046   -0.3354   49.0143 H       1  ZINC000487792031    0.1100
      7 C7         -2.9724    1.4797   48.6685 C.2     1  ZINC000487792031    0.5200
      8 O8         -3.2549    2.2913   47.8127 O.2     1  ZINC000487792031   -0.5300
      9 N9         -3.7572    1.3463   49.7560 N.am    1  ZINC000487792031   -0.7200
     10 C10        -4.9506    2.1826   49.9053 C.3     1  ZINC000487792031    0.1500
     11 C11        -5.7846    1.6682   51.0502 C.ar    1  ZINC000487792031   -0.0500
     12 C12        -5.8301    2.3682   52.2413 C.ar    1  ZINC000487792031   -0.1200
     13 C13        -6.5951    1.8962   53.2915 C.ar    1  ZINC000487792031   -0.0200
     14 C14        -7.3151    0.7246   53.1504 C.ar    1  ZINC000487792031   -0.6700
     15 S15        -8.2898    0.1228   54.4892 S.o2    1  ZINC000487792031    2.6900
     16 O16        -8.8157   -1.1295   54.0715 O.2     1  ZINC000487792031   -0.9500
     17 O17        -7.5035    0.2834   55.6619 O.2     1  ZINC000487792031   -0.9500
     18 N18        -9.5841    1.1431   54.6506 N.am    1  ZINC000487792031   -1.0000
     19 C19       -10.5197    1.3212   53.5374 C.3     1  ZINC000487792031    0.1200
     20 C20       -11.9010    0.8042   53.9446 C.3     1  ZINC000487792031   -0.1800
     21 C21        -9.7935    1.8675   55.9067 C.3     1  ZINC000487792031    0.1100
     22 C22       -10.2508    0.8885   56.9899 C.3     1  ZINC000487792031   -0.1800
     23 C23        -7.2706    0.0253   51.9588 C.ar    1  ZINC000487792031   -0.0200
     24 C24        -6.5086    0.4993   50.9073 C.ar    1  ZINC000487792031   -0.1200
     25 C25        -1.4744    0.3848   47.0520 C.ar    1  ZINC000487792031   -0.0800
     26 C26        -1.0642    1.4313   46.2473 C.ar    1  ZINC000487792031   -0.1100
     27 C27        -0.8171    1.2149   44.9045 C.ar    1  ZINC000487792031   -0.1100
     28 C28        -0.9798   -0.0480   44.3666 C.ar    1  ZINC000487792031   -0.1200
     29 C29        -1.3891   -1.0947   45.1714 C.ar    1  ZINC000487792031   -0.1200
     30 C30        -1.6320   -0.8792   46.5151 C.ar    1  ZINC000487792031   -0.1100
     31 H31         2.5708    1.7881   51.8713 H       1  ZINC000487792031    0.1000
     32 H32         1.8592    0.2458   51.0876 H       1  ZINC000487792031    0.1000
     33 H33         0.4607    2.8843   51.6297 H       1  ZINC000487792031    0.1100
     34 H34        -0.5082    0.0743   50.8979 H       1  ZINC000487792031    0.0700
     35 H35        -1.5133    1.5343   51.0604 H       1  ZINC000487792031    0.0700
     36 H36        -0.5872    2.3936   48.9152 H       1  ZINC000487792031    0.0800
     37 H37         0.3786    0.9078   48.7486 H       1  ZINC000487792031    0.0700
     38 H38        -3.5318    0.6963   50.4399 H       1  ZINC000487792031    0.4000
     39 H39        -4.6506    3.2109   50.1076 H       1  ZINC000487792031    0.0800
     40 H40        -5.5352    2.1490   48.9860 H       1  ZINC000487792031    0.0800
     41 H41        -5.2677    3.2836   52.3516 H       1  ZINC000487792031    0.1400
     42 H42        -6.6302    2.4428   54.2223 H       1  ZINC000487792031    0.1400
     43 H43       -10.5876    2.3795   53.2857 H       1  ZINC000487792031    0.0800
     44 H44       -10.1640    0.7637   52.6711 H       1  ZINC000487792031    0.0800
     45 H45       -11.8332   -0.2541   54.1964 H       1  ZINC000487792031    0.0600
     46 H46       -12.2568    1.3617   54.8110 H       1  ZINC000487792031    0.0600
     47 H47       -12.5971    0.9367   53.1164 H       1  ZINC000487792031    0.0700
     48 H48        -8.8601    2.3392   56.2140 H       1  ZINC000487792031    0.0900
     49 H49       -10.5567    2.6321   55.7623 H       1  ZINC000487792031    0.0900
     50 H50       -11.1842    0.4168   56.6826 H       1  ZINC000487792031    0.0600
     51 H51        -9.4876    0.1239   57.1343 H       1  ZINC000487792031    0.0600
     52 H52       -10.4065    1.4276   57.9244 H       1  ZINC000487792031    0.0700
     53 H53        -7.8333   -0.8899   51.8484 H       1  ZINC000487792031    0.1400
     54 H54        -6.4738   -0.0472   49.9763 H       1  ZINC000487792031    0.1400
     55 H55        -0.9372    2.4179   46.6677 H       1  ZINC000487792031    0.1200
     56 H56        -0.4974    2.0327   44.2757 H       1  ZINC000487792031    0.1200
     57 H57        -0.7874   -0.2168   43.3173 H       1  ZINC000487792031    0.1200
     58 H58        -1.5165   -2.0813   44.7510 H       1  ZINC000487792031    0.1200
     59 H59        -1.9517   -1.6971   47.1440 H       1  ZINC000487792031    0.1200
@<TRIPOS>BOND
     1     1     2    2
     2     1    31    1
     3     1    32    1
     4     2     3    1
     5     2    33    1
     6     3     4    1
     7     3    34    1
     8     3    35    1
     9     4     5    1
    10     4    36    1
    11     4    37    1
    12     5     6    1
    13     5     7    1
    14     5    25    1
    15     7     8    2
    16     7     9   am
    17     9    10    1
    18     9    38    1
    19    10    11    1
    20    10    39    1
    21    10    40    1
    22    11    24   ar
    23    11    12   ar
    24    12    13   ar
    25    12    41    1
    26    13    14   ar
    27    13    42    1
    28    14    15    1
    29    14    23   ar
    30    15    16    2
    31    15    17    2
    32    15    18   am
    33    18    19    1
    34    18    21    1
    35    19    20    1
    36    19    43    1
    37    19    44    1
    38    20    45    1
    39    20    46    1
    40    20    47    1
    41    21    22    1
    42    21    48    1
    43    21    49    1
    44    22    50    1
    45    22    51    1
    46    22    52    1
    47    23    24   ar
    48    23    53    1
    49    24    54    1
    50    25    30   ar
    51    25    26   ar
    52    26    27   ar
    53    26    55    1
    54    27    28   ar
    55    27    56    1
    56    28    29   ar
    57    28    57    1
    58    29    30   ar
    59    29    58    1
    60    30    59    1
@<TRIPOS>SUBSTRUCTURE
     1 ZINC000487792031        1 TEMP              0 ****  ****    0 ROOT


##########                                Name:    ZINC000474251633
##########                DOCK_Rotatable_Bonds:                   8
##########                         Heavy_Atoms:                  28
##########                    Molecular_Weight:             416.931
##########                DOCK_Rotatable_Bonds:                   8
##########                       Formal_Charge:          0.00999953
##########                     HBond_Acceptors:                   8
##########                        HBond_Donors:                   2
##########                         Heavy_Atoms:                  28
##########                          Grid_Score:          -36.648827
##########                     Grid_vdw_energy:          -35.607979
##########                      Grid_es_energy:           -1.040847
##########           Internal_energy_repulsive:            8.632123

@<TRIPOS>MOLECULE
ZINC000474251633
 49 52 1 0 0
SMALL
USER_CHARGES


@<TRIPOS>ATOM
      1 O1         -6.6292    0.5348   49.4504 O.2     1  ZINC000474251633   -0.5300
      2 C2         -6.2328    0.4398   50.5927 C.2     1  ZINC000474251633    0.5100
      3 C3         -6.7099   -0.6935   51.4640 C.3     1  ZINC000474251633    0.1000
      4 N4         -6.6975   -0.2700   52.8664 N.am    1  ZINC000474251633   -0.7100
      5 C5         -7.7269    0.4435   53.3640 C.2     1  ZINC000474251633    0.5900
      6 O6         -8.6672    0.7347   52.6489 O.2     1  ZINC000474251633   -0.5000
      7 C7         -7.7135    0.8695   54.7691 C.2     1  ZINC000474251633   -0.2300
      8 C8         -8.3848    0.2622   55.7548 C.2     1  ZINC000474251633    0.0400
      9 Cl9        -9.3741   -1.1370   55.4765 Cl      1  ZINC000474251633   -0.0100
     10 C10        -8.2347    0.8326   57.0306 C.ar    1  ZINC000474251633   -0.0900
     11 C11        -8.8086    0.4251   58.2580 C.ar    1  ZINC000474251633   -0.0600
     12 C12        -8.5452    1.1086   59.4035 C.ar    1  ZINC000474251633   -0.1200
     13 C13        -7.7092    2.2181   59.3908 C.ar    1  ZINC000474251633   -0.0800
     14 C14        -7.1372    2.6387   58.2141 C.ar    1  ZINC000474251633   -0.0900
     15 C15        -7.3926    1.9517   57.0230 C.ar    1  ZINC000474251633   -0.1200
     16 S16        -6.8094    2.2402   55.3878 S.3     1  ZINC000474251633    0.1700
     17 N17        -5.3613    1.3444   51.0812 N.am    1  ZINC000474251633   -0.7200
     18 C18        -4.8976    2.4461   50.2342 C.3     1  ZINC000474251633    0.2100
     19 C19        -3.7108    1.9917   49.4241 C.2     1  ZINC000474251633    0.0500
     20 N20        -3.4422    2.3437   48.1930 N.2     1  ZINC000474251633   -0.2700
     21 N21        -2.2560    1.7075   47.8048 N.pl3   1  ZINC000474251633   -0.3600
     22 C22        -1.6001    1.8285   46.5004 C.3     1  ZINC000474251633    0.1500
     23 C23        -0.4190    2.8166   46.5925 C.3     1  ZINC000474251633   -0.1400
     24 C24         0.8160    1.9116   46.8267 C.3     1  ZINC000474251633   -0.1300
     25 C25         0.5141    0.6833   45.9327 C.3     1  ZINC000474251633   -0.1200
     26 C26        -1.0068    0.4721   46.0809 C.3     1  ZINC000474251633   -0.1400
     27 C27        -1.8243    0.9635   48.8445 C.2     1  ZINC000474251633    0.0600
     28 C28        -2.7029    1.1258   49.8608 C.2     1  ZINC000474251633   -0.2600
     29 H29        -7.7245   -0.9703   51.1770 H       1  ZINC000474251633    0.1100
     30 H30        -6.0498   -1.5517   51.3378 H       1  ZINC000474251633    0.1100
     31 H31        -5.9483   -0.5032   53.4368 H       1  ZINC000474251633    0.4100
     32 H32        -9.4609   -0.4351   58.2852 H       1  ZINC000474251633    0.1300
     33 H33        -8.9908    0.7859   60.3328 H       1  ZINC000474251633    0.1400
     34 H34        -7.5086    2.7517   60.3081 H       1  ZINC000474251633    0.1400
     35 H35        -6.4884    3.5022   58.2092 H       1  ZINC000474251633    0.1400
     36 H36        -5.0413    1.2661   51.9935 H       1  ZINC000474251633    0.4100
     37 H37        -5.7003    2.7511   49.5629 H       1  ZINC000474251633    0.0900
     38 H38        -4.6080    3.2895   50.8611 H       1  ZINC000474251633    0.0900
     39 H39        -2.3162    2.1701   45.7529 H       1  ZINC000474251633    0.1100
     40 H40        -0.3133    3.3727   45.6609 H       1  ZINC000474251633    0.0900
     41 H41        -0.5568    3.4987   47.4315 H       1  ZINC000474251633    0.0800
     42 H42         1.7283    2.4114   46.5014 H       1  ZINC000474251633    0.0800
     43 H43         0.8871    1.6187   47.8742 H       1  ZINC000474251633    0.0700
     44 H44         0.7705    0.8948   44.8947 H       1  ZINC000474251633    0.0700
     45 H45         1.0573   -0.1914   46.2902 H       1  ZINC000474251633    0.0700
     46 H46        -1.2069   -0.2761   46.8478 H       1  ZINC000474251633    0.0700
     47 H47        -1.4343    0.1558   45.1295 H       1  ZINC000474251633    0.0800
     48 H48        -0.9345    0.3516   48.8637 H       1  ZINC000474251633    0.1700
     49 H49        -2.6403    0.6634   50.8348 H       1  ZINC000474251633    0.1500
@<TRIPOS>BOND
     1     1     2    2
     2     2     3    1
     3     2    17   am
     4     3     4    1
     5     3    29    1
     6     3    30    1
     7     4     5   am
     8     4    31    1
     9     5     6    2
    10     5     7    1
    11     7    16    1
    12     7     8    2
    13     8     9    1
    14     8    10    1
    15    10    15   ar
    16    10    11   ar
    17    11    12   ar
    18    11    32    1
    19    12    13   ar
    20    12    33    1
    21    13    14   ar
    22    13    34    1
    23    14    15   ar
    24    14    35    1
    25    15    16    1
    26    17    18    1
    27    17    36    1
    28    18    19    1
    29    18    37    1
    30    18    38    1
    31    19    28    1
    32    19    20    2
    33    20    21    1
    34    21    22    1
    35    21    27    1
    36    22    26    1
    37    22    23    1
    38    22    39    1
    39    23    24    1
    40    23    40    1
    41    23    41    1
    42    24    25    1
    43    24    42    1
    44    24    43    1
    45    25    26    1
    46    25    44    1
    47    25    45    1
    48    26    46    1
    49    26    47    1
    50    27    28    2
    51    27    48    1
    52    28    49    1
@<TRIPOS>SUBSTRUCTURE
     1 ZINC000474251633        1 TEMP              0 ****  ****    0 ROOT


##########                                Name:    ZINC000552360217
##########                DOCK_Rotatable_Bonds:                  13
##########                         Heavy_Atoms:                  27
##########                    Molecular_Weight:             401.484
##########                DOCK_Rotatable_Bonds:                  13
##########                       Formal_Charge:          -0.0100002
##########                     HBond_Acceptors:                  10
##########                        HBond_Donors:                   3
##########                         Heavy_Atoms:                  27
##########                          Grid_Score:          -36.538036
##########                     Grid_vdw_energy:          -36.341560
##########                      Grid_es_energy:           -0.196476
##########           Internal_energy_repulsive:           19.427963

@<TRIPOS>MOLECULE
ZINC000552360217
 54 54 1 0 0
SMALL
USER_CHARGES


@<TRIPOS>ATOM
      1 C1        -15.3505   -0.7791   59.9002 C.3     1  ZINC000552360217    0.0800
      2 N2        -15.5970   -2.1297   59.3890 N.am    1  ZINC000552360217   -1.0000
      3 C3        -16.7084   -2.3719   58.4659 C.3     1  ZINC000552360217    0.0900
      4 S4        -14.6193   -3.3826   59.8547 S.o2    1  ZINC000552360217    2.7000
      5 O5        -14.6112   -3.3785   61.2757 O.2     1  ZINC000552360217   -0.9500
      6 O6        -15.0147   -4.5083   59.0829 O.2     1  ZINC000552360217   -0.9500
      7 C7        -12.9805   -2.9818   59.3466 C.ar    1  ZINC000552360217   -0.6900
      8 C8        -11.9243   -3.1555   60.2229 C.ar    1  ZINC000552360217    0.0100
      9 C9        -10.6341   -2.8436   59.8317 C.ar    1  ZINC000552360217   -0.1400
     10 C10       -10.3933   -2.3569   58.5637 C.ar    1  ZINC000552360217   -0.0300
     11 C11       -11.4546   -2.1792   57.6745 C.ar    1  ZINC000552360217   -0.1600
     12 C12       -11.2038   -1.6583   56.3138 C.2     1  ZINC000552360217    0.5600
     13 O13       -12.0752   -1.7214   55.4686 O.2     1  ZINC000552360217   -0.5300
     14 N14       -10.0090   -1.1134   56.0104 N.am    1  ZINC000552360217   -0.7100
     15 C15        -9.7611   -0.5956   54.6625 C.3     1  ZINC000552360217    0.1000
     16 C16        -8.3782   -0.0000   54.5997 C.2     1  ZINC000552360217    0.5100
     17 O17        -7.7817    0.2575   55.6238 O.2     1  ZINC000552360217   -0.5400
     18 N18        -7.8043    0.2467   53.4054 N.am    1  ZINC000552360217   -0.7200
     19 C19        -6.4593    0.8241   53.3443 C.3     1  ZINC000552360217    0.1400
     20 C20        -6.1726    1.2992   51.9185 C.3     1  ZINC000552360217    0.1000
     21 C21        -6.4695    0.1662   50.9341 C.3     1  ZINC000552360217   -0.1800
     22 C22        -7.0599    2.5026   51.5937 C.3     1  ZINC000552360217   -0.1800
     23 O23        -4.7988    1.6771   51.8095 O.3     1  ZINC000552360217   -0.3700
     24 C24        -4.4278    2.1530   50.5142 C.3     1  ZINC000552360217    0.0600
     25 C25        -3.3103    1.2742   49.9487 C.3     1  ZINC000552360217    0.0800
     26 O26        -2.9440    1.7463   48.6506 O.3     1  ZINC000552360217   -0.5700
     27 C27       -12.7527   -2.5006   58.0736 C.ar    1  ZINC000552360217    0.0400
     28 H28       -15.9102   -0.6324   60.8240 H       1  ZINC000552360217    0.0600
     29 H29       -14.2857   -0.6537   60.0968 H       1  ZINC000552360217    0.0900
     30 H30       -15.6721   -0.0462   59.1602 H       1  ZINC000552360217    0.0800
     31 H31       -17.2346   -1.4361   58.2771 H       1  ZINC000552360217    0.0800
     32 H32       -16.3212   -2.7668   57.5266 H       1  ZINC000552360217    0.0700
     33 H33       -17.3966   -3.0930   58.9070 H       1  ZINC000552360217    0.0600
     34 H34       -12.1075   -3.5360   61.2170 H       1  ZINC000552360217    0.1500
     35 H35        -9.8140   -2.9813   60.5208 H       1  ZINC000552360217    0.1400
     36 H36        -9.3860   -2.1135   58.2597 H       1  ZINC000552360217    0.1400
     37 H37        -9.3132   -1.0640   56.6844 H       1  ZINC000552360217    0.4100
     38 H38        -9.8396   -1.4087   53.9408 H       1  ZINC000552360217    0.1000
     39 H39       -10.4983    0.1719   54.4268 H       1  ZINC000552360217    0.1000
     40 H40        -8.2819    0.0418   52.5863 H       1  ZINC000552360217    0.4100
     41 H41        -6.3956    1.6699   54.0289 H       1  ZINC000552360217    0.0800
     42 H42        -5.7266    0.0693   53.6300 H       1  ZINC000552360217    0.0900
     43 H43        -7.5174   -0.1220   51.0172 H       1  ZINC000552360217    0.0700
     44 H44        -6.2652    0.5047   49.9183 H       1  ZINC000552360217    0.0700
     45 H45        -5.8375   -0.6912   51.1653 H       1  ZINC000552360217    0.0700
     46 H46        -6.8483    3.3098   52.2951 H       1  ZINC000552360217    0.0600
     47 H47        -6.8556    2.8411   50.5779 H       1  ZINC000552360217    0.0700
     48 H48        -8.1077    2.2143   51.6769 H       1  ZINC000552360217    0.0700
     49 H49        -5.2921    2.1132   49.8512 H       1  ZINC000552360217    0.0600
     50 H50        -4.0766    3.1820   50.5920 H       1  ZINC000552360217    0.0700
     51 H51        -2.4442    1.3180   50.6090 H       1  ZINC000552360217    0.0600
     52 H52        -3.6598    0.2444   49.8755 H       1  ZINC000552360217    0.0500
     53 H53        -2.2084    1.2634   48.2496 H       1  ZINC000552360217    0.3800
     54 H54       -13.5781   -2.3654   57.3904 H       1  ZINC000552360217    0.1500
@<TRIPOS>BOND
     1     1     2    1
     2     1    28    1
     3     1    29    1
     4     1    30    1
     5     2     3    1
     6     2     4   am
     7     3    31    1
     8     3    32    1
     9     3    33    1
    10     4     5    2
    11     4     6    2
    12     4     7    1
    13     7    27   ar
    14     7     8   ar
    15     8     9   ar
    16     8    34    1
    17     9    10   ar
    18     9    35    1
    19    10    11   ar
    20    10    36    1
    21    11    12    1
    22    11    27   ar
    23    12    13    2
    24    12    14   am
    25    14    15    1
    26    14    37    1
    27    15    16    1
    28    15    38    1
    29    15    39    1
    30    16    17    2
    31    16    18   am
    32    18    19    1
    33    18    40    1
    34    19    20    1
    35    19    41    1
    36    19    42    1
    37    20    21    1
    38    20    22    1
    39    20    23    1
    40    21    43    1
    41    21    44    1
    42    21    45    1
    43    22    46    1
    44    22    47    1
    45    22    48    1
    46    23    24    1
    47    24    25    1
    48    24    49    1
    49    24    50    1
    50    25    26    1
    51    25    51    1
    52    25    52    1
    53    26    53    1
    54    27    54    1
@<TRIPOS>SUBSTRUCTURE
     1 ZINC000552360217        1 TEMP              0 ****  ****    0 ROOT


##########                                Name:    ZINC000599797189
##########                DOCK_Rotatable_Bonds:                  13
##########                         Heavy_Atoms:                  23
##########                    Molecular_Weight:             329.313
##########                DOCK_Rotatable_Bonds:                  13
##########                       Formal_Charge:          0.00999949
##########                     HBond_Acceptors:                  11
##########                        HBond_Donors:                   3
##########                         Heavy_Atoms:                  23
##########                          Grid_Score:          -36.434662
##########                     Grid_vdw_energy:          -32.933235
##########                      Grid_es_energy:           -3.501426
##########           Internal_energy_repulsive:           14.973633

@<TRIPOS>MOLECULE
ZINC000599797189
 42 42 1 0 0
SMALL
USER_CHARGES


@<TRIPOS>ATOM
      1 C1        -10.9164    0.5029   53.1059 C.3     1  ZINC000599797189   -0.1500
      2 C2         -9.7515   -0.4744   52.9353 C.3     1  ZINC000599797189    0.0600
      3 O3         -8.4958    0.2495   53.0221 O.3     1  ZINC000599797189   -0.3600
      4 C4         -7.6458    0.1211   51.9913 C.2     1  ZINC000599797189    0.4500
      5 O5         -7.1768   -0.9603   51.7262 O.2     1  ZINC000599797189   -0.4800
      6 C6         -7.2764    1.3258   51.1647 C.3     1  ZINC000599797189    0.1500
      7 N7         -5.8185    1.4657   51.1299 N.pl3   1  ZINC000599797189   -0.3800
      8 C8         -5.0585    2.1792   51.9777 C.2     1  ZINC000599797189    0.2800
      9 N9         -3.8082    2.0505   51.6131 N.2     1  ZINC000599797189   -0.5100
     10 C10        -3.7299    1.2625   50.5367 C.2     1  ZINC000599797189    0.4700
     11 N11        -2.5515    0.9047   49.8735 N.am    1  ZINC000599797189   -0.6400
     12 C12        -2.0859    1.6700   48.8664 C.2     1  ZINC000599797189    0.7100
     13 O13        -2.6911    2.6706   48.5334 O.2     1  ZINC000599797189   -0.5300
     14 N14        -0.9496    1.3261   48.2285 N.am    1  ZINC000599797189   -0.7300
     15 C15        -0.4427    2.1589   47.1351 C.3     1  ZINC000599797189    0.1100
     16 C16        -1.0199    1.6643   45.8073 C.3     1  ZINC000599797189    0.1100
     17 H17        -2.0713    1.4097   45.9405 H       1  ZINC000599797189    0.1200
     18 O18        -0.8999    2.6933   44.8230 O.3     1  ZINC000599797189   -0.5400
     19 C19        -0.2496    0.4253   45.3463 C.3     1  ZINC000599797189   -0.1500
     20 C20        -1.1814   -0.4988   44.6056 C.2     1  ZINC000599797189    0.4600
     21 O21        -1.4494   -0.2851   43.4469 O.2     1  ZINC000599797189   -0.4900
     22 O22        -1.7136   -1.5594   45.2329 O.3     1  ZINC000599797189   -0.3600
     23 C23        -1.5022   -1.6516   46.6666 C.3     1  ZINC000599797189    0.0400
     24 N24        -4.9392    0.8755   50.2075 N.2     1  ZINC000599797189   -0.3200
     25 H25       -11.8591   -0.0406   53.0407 H       1  ZINC000599797189    0.0800
     26 H26       -10.8436    0.9886   54.0789 H       1  ZINC000599797189    0.0700
     27 H27       -10.8765    1.2567   52.3196 H       1  ZINC000599797189    0.0700
     28 H28        -9.7915   -1.2282   53.7216 H       1  ZINC000599797189    0.0700
     29 H29        -9.8244   -0.9601   51.9622 H       1  ZINC000599797189    0.0700
     30 H30        -7.6536    1.1997   50.1499 H       1  ZINC000599797189    0.1500
     31 H31        -7.7165    2.2192   51.6076 H       1  ZINC000599797189    0.1300
     32 H32        -5.4174    2.7590   52.8152 H       1  ZINC000599797189    0.2300
     33 H33        -2.0693    0.1058   50.1384 H       1  ZINC000599797189    0.4200
     34 H34        -0.4674    0.5272   48.4934 H       1  ZINC000599797189    0.4000
     35 H35        -0.7419    3.1943   47.2981 H       1  ZINC000599797189    0.0800
     36 H36         0.6451    2.0957   47.1044 H       1  ZINC000599797189    0.0800
     37 H37        -0.0189    2.7610   44.4301 H       1  ZINC000599797189    0.3800
     38 H38         0.5632    0.7276   44.6859 H       1  ZINC000599797189    0.1200
     39 H39         0.1605   -0.0914   46.2141 H       1  ZINC000599797189    0.1200
     40 H40        -0.4331   -1.6947   46.8742 H       1  ZINC000599797189    0.0600
     41 H41        -1.9322   -0.7767   47.1543 H       1  ZINC000599797189    0.0600
     42 H42        -1.9830   -2.5527   47.0474 H       1  ZINC000599797189    0.1000
@<TRIPOS>BOND
     1     1     2    1
     2     1    25    1
     3     1    26    1
     4     1    27    1
     5     2     3    1
     6     2    28    1
     7     2    29    1
     8     3     4    1
     9     4     5    2
    10     4     6    1
    11     6     7    1
    12     6    30    1
    13     6    31    1
    14     7    24    1
    15     7     8    1
    16     8     9    2
    17     8    32    1
    18     9    10    1
    19    10    11    1
    20    10    24    2
    21    11    12   am
    22    11    33    1
    23    12    13    2
    24    12    14   am
    25    14    15    1
    26    14    34    1
    27    15    16    1
    28    15    35    1
    29    15    36    1
    30    16    17    1
    31    16    18    1
    32    16    19    1
    33    18    37    1
    34    19    20    1
    35    19    38    1
    36    19    39    1
    37    20    21    2
    38    20    22    1
    39    22    23    1
    40    23    40    1
    41    23    41    1
    42    23    42    1
@<TRIPOS>SUBSTRUCTURE
     1 ZINC000599797189        1 TEMP              0 ****  ****    0 ROOT


##########                                Name:    ZINC000508765459
##########                DOCK_Rotatable_Bonds:                  10
##########                         Heavy_Atoms:                  29
##########                    Molecular_Weight:               405.5
##########                DOCK_Rotatable_Bonds:                  10
##########                       Formal_Charge:         -6.4075e-07
##########                     HBond_Acceptors:                  10
##########                        HBond_Donors:                   1
##########                         Heavy_Atoms:                  29
##########                          Grid_Score:          -36.398808
##########                     Grid_vdw_energy:          -35.772785
##########                      Grid_es_energy:           -0.626021
##########           Internal_energy_repulsive:           15.043902

@<TRIPOS>MOLECULE
ZINC000508765459
 60 62 1 0 0
SMALL
USER_CHARGES


@<TRIPOS>ATOM
      1 C1        -14.4023   -0.0151   63.2180 C.3     1  ZINC000508765459    0.0300
      2 O2        -14.8822   -1.3064   62.8378 O.3     1  ZINC000508765459   -0.3900
      3 C3        -14.7090   -1.6057   61.4513 C.3     1  ZINC000508765459    0.0500
      4 C4        -14.2037   -3.0418   61.2989 C.3     1  ZINC000508765459    0.1100
      5 N5        -13.6583   -3.2271   59.9519 N.am    1  ZINC000508765459   -0.5900
      6 C6        -12.2691   -2.8518   59.7262 C.3     1  ZINC000508765459    0.1000
      7 C7        -11.7037   -3.5750   58.5023 C.3     1  ZINC000508765459    0.1200
      8 N8        -12.6820   -3.4596   57.4075 N.am    1  ZINC000508765459   -0.6400
      9 C9        -12.3733   -2.8341   56.2544 C.2     1  ZINC000508765459    0.7100
     10 O10       -13.2005   -2.7517   55.3671 O.2     1  ZINC000508765459   -0.5800
     11 N11       -11.1476   -2.2998   56.0848 N.am    1  ZINC000508765459   -0.7400
     12 C12       -10.8126   -1.6182   54.8319 C.3     1  ZINC000508765459    0.1400
     13 C13        -9.8439   -0.4694   55.1196 C.3     1  ZINC000508765459   -0.1400
     14 C14        -9.8487    0.5085   53.9430 C.3     1  ZINC000508765459    0.0600
     15 N15        -8.4674    0.7675   53.5159 N.3     1  ZINC000508765459   -0.5400
     16 C16        -8.3126    2.1505   53.0434 C.3     1  ZINC000508765459    0.0500
     17 C17        -6.8465    2.4029   52.6839 C.3     1  ZINC000508765459    0.0700
     18 N18        -6.4267    1.4462   51.6503 N.3     1  ZINC000508765459   -0.4600
     19 C19        -5.1250    1.6902   51.2479 C.ar    1  ZINC000508765459    0.4900
     20 N20        -4.4666    0.7518   50.5837 N.ar    1  ZINC000508765459   -0.5500
     21 C21        -3.2217    0.9529   50.1845 C.ar    1  ZINC000508765459    0.1700
     22 C22        -2.6077    2.1625   50.4691 C.ar    1  ZINC000508765459   -0.2600
     23 C23        -3.3252    3.1223   51.1656 C.ar    1  ZINC000508765459    0.1700
     24 N24        -4.5688    2.8589   51.5315 N.ar    1  ZINC000508765459   -0.5300
     25 C25        -6.5814    0.0633   52.1227 C.3     1  ZINC000508765459    0.0700
     26 C26        -8.0474   -0.1891   52.4823 C.3     1  ZINC000508765459    0.0600
     27 C27       -14.0090   -4.0551   57.6236 C.3     1  ZINC000508765459    0.1000
     28 C28       -14.4671   -3.7326   59.0195 C.2     1  ZINC000508765459    0.5100
     29 O29       -15.6277   -3.9336   59.3084 O.2     1  ZINC000508765459   -0.5400
     30 H30       -14.9352    0.7509   62.6546 H       1  ZINC000508765459    0.0400
     31 H31       -14.5703    0.1354   64.2844 H       1  ZINC000508765459    0.0900
     32 H32       -13.3355    0.0532   63.0050 H       1  ZINC000508765459    0.0400
     33 H33       -15.6629   -1.4995   60.9347 H       1  ZINC000508765459    0.0500
     34 H34       -13.9830   -0.9172   61.0189 H       1  ZINC000508765459    0.0600
     35 H35       -13.4238   -3.2328   62.0360 H       1  ZINC000508765459    0.1100
     36 H36       -15.0293   -3.7361   61.4552 H       1  ZINC000508765459    0.0900
     37 H37       -12.2098   -1.7753   59.5660 H       1  ZINC000508765459    0.0700
     38 H38       -11.6790   -3.1164   60.6036 H       1  ZINC000508765459    0.1000
     39 H39       -10.7623   -3.1131   58.2046 H       1  ZINC000508765459    0.1200
     40 H40       -11.5394   -4.6261   58.7395 H       1  ZINC000508765459    0.0800
     41 H41       -10.4873   -2.3665   56.7922 H       1  ZINC000508765459    0.4000
     42 H42       -10.3444   -2.3256   54.1475 H       1  ZINC000508765459    0.0700
     43 H43       -11.7217   -1.2222   54.3795 H       1  ZINC000508765459    0.0700
     44 H44       -10.1556    0.0505   56.0255 H       1  ZINC000508765459    0.0700
     45 H45        -8.8386   -0.8676   55.2569 H       1  ZINC000508765459    0.0800
     46 H46       -10.4105    0.0773   53.1144 H       1  ZINC000508765459    0.0800
     47 H47       -10.3155    1.4444   54.2503 H       1  ZINC000508765459    0.0400
     48 H48        -8.9351    2.3055   52.1622 H       1  ZINC000508765459    0.0500
     49 H49        -8.6179    2.8399   53.8306 H       1  ZINC000508765459    0.0900
     50 H50        -6.7345    3.4190   52.3058 H       1  ZINC000508765459    0.0900
     51 H51        -6.2270    2.2743   53.5714 H       1  ZINC000508765459    0.0600
     52 H52        -2.6902    0.1840   49.6437 H       1  ZINC000508765459    0.1700
     53 H53        -1.5920    2.3530   50.1552 H       1  ZINC000508765459    0.1500
     54 H54        -2.8757    4.0750   51.4036 H       1  ZINC000508765459    0.1700
     55 H55        -6.2761   -0.6263   51.3356 H       1  ZINC000508765459    0.1000
     56 H56        -5.9589   -0.0918   53.0039 H       1  ZINC000508765459    0.0500
     57 H57        -8.1594   -1.2053   52.8603 H       1  ZINC000508765459    0.0900
     58 H58        -8.6669   -0.0607   51.5947 H       1  ZINC000508765459    0.0500
     59 H59       -14.7149   -3.6456   56.9010 H       1  ZINC000508765459    0.1100
     60 H60       -13.9476   -5.1367   57.5040 H       1  ZINC000508765459    0.1100
@<TRIPOS>BOND
     1     1     2    1
     2     1    30    1
     3     1    31    1
     4     1    32    1
     5     2     3    1
     6     3     4    1
     7     3    33    1
     8     3    34    1
     9     4     5    1
    10     4    35    1
    11     4    36    1
    12     5    28   am
    13     5     6    1
    14     6     7    1
    15     6    37    1
    16     6    38    1
    17     7     8    1
    18     7    39    1
    19     7    40    1
    20     8     9   am
    21     8    27    1
    22     9    10    2
    23     9    11   am
    24    11    12    1
    25    11    41    1
    26    12    13    1
    27    12    42    1
    28    12    43    1
    29    13    14    1
    30    13    44    1
    31    13    45    1
    32    14    15    1
    33    14    46    1
    34    14    47    1
    35    15    26    1
    36    15    16    1
    37    16    17    1
    38    16    48    1
    39    16    49    1
    40    17    18    1
    41    17    50    1
    42    17    51    1
    43    18    19    1
    44    18    25    1
    45    19    24   ar
    46    19    20   ar
    47    20    21   ar
    48    21    22   ar
    49    21    52    1
    50    22    23   ar
    51    22    53    1
    52    23    24   ar
    53    23    54    1
    54    25    26    1
    55    25    55    1
    56    25    56    1
    57    26    57    1
    58    26    58    1
    59    27    28    1
    60    27    59    1
    61    27    60    1
    62    28    29    2
@<TRIPOS>SUBSTRUCTURE
     1 ZINC000508765459        1 TEMP              0 ****  ****    0 ROOT


##########                                Name:    ZINC000013809319
##########                DOCK_Rotatable_Bonds:                  10
##########                         Heavy_Atoms:                  30
##########                    Molecular_Weight:             407.469
##########                DOCK_Rotatable_Bonds:                  10
##########                       Formal_Charge:         -0.00999978
##########                     HBond_Acceptors:                   7
##########                        HBond_Donors:                   1
##########                         Heavy_Atoms:                  30
##########                          Grid_Score:          -36.370808
##########                     Grid_vdw_energy:          -36.099087
##########                      Grid_es_energy:           -0.271719
##########           Internal_energy_repulsive:           19.582333

@<TRIPOS>MOLECULE
ZINC000013809319
 55 57 1 0 0
SMALL
USER_CHARGES


@<TRIPOS>ATOM
      1 C1        -11.4771   -3.9194   57.0220 C.3     1  ZINC000013809319   -0.1500
      2 C2        -11.1026   -2.6788   57.8355 C.3     1  ZINC000013809319    0.0500
      3 O3        -11.5407   -1.5067   57.1454 O.3     1  ZINC000013809319   -0.3100
      4 C4        -10.7654   -1.0691   56.1200 C.ar    1  ZINC000013809319    0.1500
      5 C5        -11.2907   -0.9970   54.8359 C.ar    1  ZINC000013809319   -0.2200
      6 C6        -10.5071   -0.5530   53.7932 C.ar    1  ZINC000013809319   -0.0300
      7 C7         -9.1841   -0.1753   54.0282 C.ar    1  ZINC000013809319   -0.1100
      8 C8         -8.3395    0.3026   52.9107 C.2     1  ZINC000013809319    0.2300
      9 C9         -7.5465   -0.5877   52.2050 C.2     1  ZINC000013809319   -0.2900
     10 C10        -6.7601   -0.0915   51.1507 C.2     1  ZINC000013809319    0.5300
     11 O11        -6.0468   -0.8390   50.5015 O.2     1  ZINC000013809319   -0.5400
     12 N12        -6.8097    1.2276   50.8704 N.am    1  ZINC000013809319   -0.5100
     13 C13        -6.0008    1.7712   49.7766 C.3     1  ZINC000013809319    0.0700
     14 C14        -4.6142    2.0770   50.2815 C.2     1  ZINC000013809319    0.5000
     15 O15        -4.4610    2.5338   51.3944 O.2     1  ZINC000013809319   -0.5200
     16 N16        -3.5442    1.8428   49.4960 N.am    1  ZINC000013809319   -0.7200
     17 C17        -2.1961    2.1383   49.9874 C.3     1  ZINC000013809319    0.1300
     18 C18        -1.2957    2.5167   48.8096 C.3     1  ZINC000013809319   -0.0800
     19 C19        -1.3374    1.4229   47.7738 C.ar    1  ZINC000013809319   -0.1200
     20 C20        -1.5668    0.1160   48.1574 C.ar    1  ZINC000013809319   -0.0800
     21 C21        -1.6046   -0.8882   47.2074 C.ar    1  ZINC000013809319   -0.1500
     22 C22        -1.4136   -0.5869   45.8718 C.ar    1  ZINC000013809319   -0.0800
     23 C23        -1.1843    0.7189   45.4828 C.ar    1  ZINC000013809319   -0.2100
     24 C24        -1.1510    1.7288   46.4332 C.ar    1  ZINC000013809319    0.1300
     25 O25        -0.9257    3.0139   46.0533 O.3     1  ZINC000013809319   -0.3100
     26 C26        -0.7733    3.2594   44.6537 C.3     1  ZINC000013809319    0.0300
     27 C27        -7.6004    2.0475   51.5916 C.2     1  ZINC000013809319    0.3900
     28 N28        -8.3402    1.6030   52.5694 N.2     1  ZINC000013809319   -0.5300
     29 C29        -8.6596   -0.2490   55.3196 C.ar    1  ZINC000013809319   -0.0500
     30 C30        -9.4506   -0.6889   56.3586 C.ar    1  ZINC000013809319   -0.1600
     31 H31       -12.5588   -3.9566   56.8933 H       1  ZINC000013809319    0.0700
     32 H32       -10.9962   -3.8720   56.0451 H       1  ZINC000013809319    0.0700
     33 H33       -11.1429   -4.8135   57.5484 H       1  ZINC000013809319    0.0800
     34 H34       -11.5835   -2.7263   58.8126 H       1  ZINC000013809319    0.0600
     35 H35       -10.0209   -2.6417   57.9643 H       1  ZINC000013809319    0.0600
     36 H36       -12.3145   -1.2898   54.6547 H       1  ZINC000013809319    0.1300
     37 H37       -10.9160   -0.4976   52.7950 H       1  ZINC000013809319    0.1400
     38 H38        -7.5325   -1.6375   52.4588 H       1  ZINC000013809319    0.1600
     39 H39        -5.9409    1.0398   48.9707 H       1  ZINC000013809319    0.1300
     40 H40        -6.4616    2.6860   49.4038 H       1  ZINC000013809319    0.1300
     41 H41        -3.6668    1.4785   48.6053 H       1  ZINC000013809319    0.4000
     42 H42        -2.2402    2.9684   50.6923 H       1  ZINC000013809319    0.0700
     43 H43        -1.7904    1.2585   50.4867 H       1  ZINC000013809319    0.0700
     44 H44        -1.6475    3.4490   48.3680 H       1  ZINC000013809319    0.0800
     45 H45        -0.2720    2.6450   49.1615 H       1  ZINC000013809319    0.0800
     46 H46        -1.7162   -0.1219   49.2002 H       1  ZINC000013809319    0.1300
     47 H47        -1.7833   -1.9096   47.5094 H       1  ZINC000013809319    0.1300
     48 H48        -1.4433   -1.3729   45.1317 H       1  ZINC000013809319    0.1300
     49 H49        -1.0348    0.9537   44.4393 H       1  ZINC000013809319    0.1300
     50 H50        -1.6794    2.9540   44.1305 H       1  ZINC000013809319    0.0600
     51 H51        -0.5991    4.3226   44.4883 H       1  ZINC000013809319    0.1000
     52 H52         0.0748    2.6891   44.2751 H       1  ZINC000013809319    0.0600
     53 H53        -7.6250    3.1000   51.3506 H       1  ZINC000013809319    0.2000
     54 H54        -7.6364    0.0425   55.5050 H       1  ZINC000013809319    0.1400
     55 H55        -9.0456   -0.7459   57.3581 H       1  ZINC000013809319    0.1400
@<TRIPOS>BOND
     1     1     2    1
     2     1    31    1
     3     1    32    1
     4     1    33    1
     5     2     3    1
     6     2    34    1
     7     2    35    1
     8     3     4    1
     9     4    30   ar
    10     4     5   ar
    11     5     6   ar
    12     5    36    1
    13     6     7   ar
    14     6    37    1
    15     7     8    1
    16     7    29   ar
    17     8    28    1
    18     8     9    2
    19     9    10    1
    20     9    38    1
    21    10    11    2
    22    10    12   am
    23    12    13    1
    24    12    27    1
    25    13    14    1
    26    13    39    1
    27    13    40    1
    28    14    15    2
    29    14    16   am
    30    16    17    1
    31    16    41    1
    32    17    18    1
    33    17    42    1
    34    17    43    1
    35    18    19    1
    36    18    44    1
    37    18    45    1
    38    19    24   ar
    39    19    20   ar
    40    20    21   ar
    41    20    46    1
    42    21    22   ar
    43    21    47    1
    44    22    23   ar
    45    22    48    1
    46    23    24   ar
    47    23    49    1
    48    24    25    1
    49    25    26    1
    50    26    50    1
    51    26    51    1
    52    26    52    1
    53    27    28    2
    54    27    53    1
    55    29    30   ar
    56    29    54    1
    57    30    55    1
@<TRIPOS>SUBSTRUCTURE
     1 ZINC000013809319        1 TEMP              0 ****  ****    0 ROOT


##########                                Name:    ZINC000027473870
##########                DOCK_Rotatable_Bonds:                  10
##########                         Heavy_Atoms:                  31
##########                    Molecular_Weight:             422.502
##########                DOCK_Rotatable_Bonds:                  10
##########                       Formal_Charge:        -7.45058e-08
##########                     HBond_Acceptors:                   7
##########                        HBond_Donors:                   1
##########                         Heavy_Atoms:                  31
##########                          Grid_Score:          -36.338440
##########                     Grid_vdw_energy:          -35.461060
##########                      Grid_es_energy:           -0.877382
##########           Internal_energy_repulsive:           19.127012

@<TRIPOS>MOLECULE
ZINC000027473870
 58 60 1 0 0
SMALL
USER_CHARGES


@<TRIPOS>ATOM
      1 C1         -7.3759    1.7294   54.9045 C.3     1  ZINC000027473870   -0.1400
      2 C2         -7.9564    1.8857   53.4976 C.3     1  ZINC000027473870   -0.0800
      3 C3         -7.6730    0.6414   52.6961 C.2     1  ZINC000027473870    0.1700
      4 C4         -6.5573    0.4072   51.9171 C.2     1  ZINC000027473870   -0.2900
      5 C5         -5.4227    1.3263   51.7148 C.2     1  ZINC000027473870    0.6000
      6 O6         -5.1310    2.1314   52.5782 O.2     1  ZINC000027473870   -0.5400
      7 N7         -4.7086    1.2744   50.5729 N.am    1  ZINC000027473870   -0.7200
      8 C8         -3.5799    2.1867   50.3726 C.3     1  ZINC000027473870    0.1600
      9 C9         -2.8970    1.8621   49.0691 C.ar    1  ZINC000027473870   -0.0900
     10 C10        -1.7151    1.1428   49.0711 C.ar    1  ZINC000027473870   -0.1100
     11 C11        -1.0846    0.8427   47.8814 C.ar    1  ZINC000027473870   -0.1100
     12 C12        -1.6417    1.2662   46.6737 C.ar    1  ZINC000027473870   -0.1200
     13 C13        -0.9717    0.9479   45.3948 C.2     1  ZINC000027473870    0.5600
     14 O14        -1.4061    0.0618   44.6852 O.2     1  ZINC000027473870   -0.5300
     15 N15         0.1207    1.6403   45.0157 N.am    1  ZINC000027473870   -0.6100
     16 C16         0.6442    2.7083   45.8709 C.3     1  ZINC000027473870    0.1100
     17 C17         1.0338    3.9090   45.0064 C.3     1  ZINC000027473870   -0.1700
     18 C18         0.7846    1.3249   43.7484 C.3     1  ZINC000027473870    0.0900
     19 C19         2.2015    0.8192   44.0270 C.3     1  ZINC000027473870   -0.1800
     20 C20        -2.8345    1.9912   46.6786 C.ar    1  ZINC000027473870   -0.0700
     21 C21        -3.4575    2.2801   47.8752 C.ar    1  ZINC000027473870   -0.1000
     22 C22        -6.7064   -0.8788   51.3502 C.2     1  ZINC000027473870    0.0900
     23 N23        -7.8387   -1.3757   51.7668 N.2     1  ZINC000027473870   -0.2800
     24 N24        -8.4574   -0.4482   52.6125 N.pl3   1  ZINC000027473870   -0.3100
     25 C25        -9.6910   -0.6214   53.2562 C.ar    1  ZINC000027473870    0.1300
     26 C26        -9.7366   -1.1403   54.5431 C.ar    1  ZINC000027473870   -0.0900
     27 C27       -10.9526   -1.3097   55.1757 C.ar    1  ZINC000027473870   -0.1300
     28 C28       -12.1258   -0.9623   54.5271 C.ar    1  ZINC000027473870    0.1100
     29 F29       -13.3143   -1.1283   55.1475 F       1  ZINC000027473870   -0.1300
     30 C30       -12.0822   -0.4446   53.2432 C.ar    1  ZINC000027473870   -0.1400
     31 C31       -10.8678   -0.2689   52.6095 C.ar    1  ZINC000027473870   -0.0700
     32 H32        -7.5032    2.6610   55.4558 H       1  ZINC000027473870    0.0700
     33 H33        -7.8960    0.9253   55.4250 H       1  ZINC000027473870    0.0700
     34 H34        -6.3146    1.4905   54.8351 H       1  ZINC000027473870    0.0500
     35 H35        -9.0338    2.0376   53.5640 H       1  ZINC000027473870    0.1200
     36 H36        -7.4978    2.7452   53.0088 H       1  ZINC000027473870    0.0800
     37 H37        -4.9421    0.6330   49.8836 H       1  ZINC000027473870    0.4000
     38 H38        -3.9432    3.2139   50.3466 H       1  ZINC000027473870    0.0800
     39 H39        -2.8708    2.0727   51.1926 H       1  ZINC000027473870    0.0800
     40 H40        -1.2851    0.8156   50.0062 H       1  ZINC000027473870    0.1300
     41 H41        -0.1617    0.2817   47.8843 H       1  ZINC000027473870    0.1500
     42 H42        -0.1211    3.0089   46.5865 H       1  ZINC000027473870    0.0800
     43 H43         1.5214    2.3470   46.4076 H       1  ZINC000027473870    0.0800
     44 H44         1.4233    4.7037   45.6428 H       1  ZINC000027473870    0.0700
     45 H45         1.7992    3.6085   44.2910 H       1  ZINC000027473870    0.0600
     46 H46         0.1565    4.2703   44.4698 H       1  ZINC000027473870    0.0600
     47 H47         0.2201    0.5536   43.2246 H       1  ZINC000027473870    0.0800
     48 H48         0.8338    2.2217   43.1309 H       1  ZINC000027473870    0.0900
     49 H49         2.7791    0.8289   43.1026 H       1  ZINC000027473870    0.0700
     50 H50         2.6806    1.4665   44.7615 H       1  ZINC000027473870    0.0700
     51 H51         2.1544   -0.1983   44.4153 H       1  ZINC000027473870    0.0600
     52 H52        -3.2705    2.3222   45.7476 H       1  ZINC000027473870    0.1300
     53 H53        -4.3806    2.8406   47.8805 H       1  ZINC000027473870    0.1300
     54 H54        -6.0058   -1.3650   50.6875 H       1  ZINC000027473870    0.1900
     55 H55        -8.8219   -1.4116   55.0492 H       1  ZINC000027473870    0.1500
     56 H56       -10.9885   -1.7136   56.1767 H       1  ZINC000027473870    0.1500
     57 H57       -12.9983   -0.1746   52.7389 H       1  ZINC000027473870    0.1500
     58 H58       -10.8343    0.1352   51.6085 H       1  ZINC000027473870    0.1400
@<TRIPOS>BOND
     1     1     2    1
     2     1    32    1
     3     1    33    1
     4     1    34    1
     5     2     3    1
     6     2    35    1
     7     2    36    1
     8     3    24    1
     9     3     4    2
    10     4     5    1
    11     4    22    1
    12     5     6    2
    13     5     7   am
    14     7     8    1
    15     7    37    1
    16     8     9    1
    17     8    38    1
    18     8    39    1
    19     9    21   ar
    20     9    10   ar
    21    10    11   ar
    22    10    40    1
    23    11    12   ar
    24    11    41    1
    25    12    13    1
    26    12    20   ar
    27    13    14    2
    28    13    15   am
    29    15    16    1
    30    15    18    1
    31    16    17    1
    32    16    42    1
    33    16    43    1
    34    17    44    1
    35    17    45    1
    36    17    46    1
    37    18    19    1
    38    18    47    1
    39    18    48    1
    40    19    49    1
    41    19    50    1
    42    19    51    1
    43    20    21   ar
    44    20    52    1
    45    21    53    1
    46    22    23    2
    47    22    54    1
    48    23    24    1
    49    24    25    1
    50    25    31   ar
    51    25    26   ar
    52    26    27   ar
    53    26    55    1
    54    27    28   ar
    55    27    56    1
    56    28    29    1
    57    28    30   ar
    58    30    31   ar
    59    30    57    1
    60    31    58    1
@<TRIPOS>SUBSTRUCTURE
     1 ZINC000027473870        1 TEMP              0 ****  ****    0 ROOT


##########                                Name:     oleObject79.pdb
##########                DOCK_Rotatable_Bonds:                  12
##########                         Heavy_Atoms:                  53
##########                    Molecular_Weight:             725.376
##########                DOCK_Rotatable_Bonds:                  12
##########                       Formal_Charge:          0.00050066
##########                     HBond_Acceptors:                   8
##########                        HBond_Donors:                   4
##########                         Heavy_Atoms:                  53
##########                          Grid_Score:          -36.207199
##########                     Grid_vdw_energy:          -36.281364
##########                      Grid_es_energy:            0.074167
##########           Internal_energy_repulsive:           35.354229

@<TRIPOS>MOLECULE
oleObject79.pdb
 102 108 1 0 0
SMALL
NO_CHARGES


@<TRIPOS>ATOM
      1 C          -8.1545    3.4077   61.8308 C.ar    1  UNL        -0.0620
      2 C          -7.7247    3.2239   60.5093 C.ar    1  UNL        -0.0590
      3 C          -8.4399    2.3904   59.6272 C.ar    1  UNL        -0.0456
      4 C          -9.6128    1.7290   60.0789 C.ar    1  UNL        -0.0185
      5 C         -10.0292    1.9275   61.4132 C.ar    1  UNL        -0.0565
      6 C          -9.3086    2.7580   62.2832 C.ar    1  UNL        -0.0619
      7 C         -10.4672    0.8481   59.1450 C.3     1  UNL         0.0931
      8 C         -11.1477   -0.3550   59.8247 C.ar    1  UNL         0.0683
      9 C         -10.4048   -1.4973   60.2187 C.ar    1  UNL        -0.0272
     10 C         -11.0883   -2.5625   60.8351 C.ar    1  UNL        -0.0559
     11 C         -12.4715   -2.4601   61.0407 C.ar    1  UNL        -0.0435
     12 C         -13.1276   -1.2934   60.6223 C.ar    1  UNL         0.0272
     13 N         -12.4828   -0.2706   60.0309 N.ar    1  UNL        -0.2587
     14 C          -8.8999   -1.6079   59.9960 C.3     1  UNL        -0.0379
     15 N         -11.3717    1.6751   58.2982 N.am    1  UNL        -0.2918
     16 C         -11.5405    1.3774   56.9441 C.2     1  UNL         0.2179
     17 O         -10.7349    0.6643   56.3693 O.2     1  UNL        -0.2772
     18 C         -12.5035    2.2969   56.1455 C.3     1  UNL         0.0361
     19 C         -13.2356    1.5590   54.9881 C.3     1  UNL        -0.0412
     20 C         -12.3253    1.2469   53.7682 C.3     1  UNL        -0.0453
     21 C         -11.5257    2.4716   53.2318 C.3     1  UNL        -0.0139
     22 C         -10.4285    1.9553   52.2600 C.3     1  UNL         0.0171
     23 N          -9.7008    3.0788   51.6357 N.pl3   1  UNL        -0.3290
     24 C         -10.5528    3.9684   50.8224 C.3     1  UNL         0.0115
     25 C         -11.7126    4.5383   51.6728 C.3     1  UNL        -0.0368
     26 C         -12.4733    3.4232   52.4333 C.3     1  UNL        -0.0446
     27 C          -8.3033    3.1398   51.6343 C.ar    1  UNL         0.0476
     28 C          -7.5737    2.0687   51.0826 C.ar    1  UNL        -0.0375
     29 C          -6.1704    2.0728   51.0862 C.ar    1  UNL        -0.0388
     30 C          -5.4618    3.1384   51.6622 C.ar    1  UNL         0.0318
     31 C          -6.1825    4.2206   52.1997 C.ar    1  UNL        -0.0202
     32 C          -7.5877    4.2246   52.1946 C.ar    1  UNL         0.0636
     33 CL         -8.3842    5.5854   52.9660 Cl      1  UNL        -0.0822
     34 N          -4.0688    3.1079   51.6477 N.pl3   1  UNL        -0.3149
     35 C          -3.1637    2.6779   50.6789 C.ar    1  UNL         0.0302
     36 C          -3.5268    2.5245   49.3281 C.ar    1  UNL        -0.0402
     37 C          -2.5801    2.1146   48.3758 C.ar    1  UNL        -0.0525
     38 C          -1.2360    1.8512   48.7391 C.ar    1  UNL        -0.0182
     39 C          -0.8835    2.0287   50.1001 C.ar    1  UNL        -0.0525
     40 C          -1.8302    2.4436   51.0509 C.ar    1  UNL        -0.0402
     41 C          -0.2227    1.4123   47.7221 C.ar    1  UNL        -0.0177
     42 C          -0.5998    1.1185   46.3868 C.ar    1  UNL        -0.0439
     43 C           0.3399    0.7016   45.4188 C.ar    1  UNL         0.0111
     44 C           1.6916    0.5752   45.8003 C.ar    1  UNL        -0.0518
     45 C           2.0900    0.8611   47.1140 C.ar    1  UNL        -0.0609
     46 C           1.1449    1.2756   48.0635 C.ar    1  UNL        -0.0543
     47 C          -0.0602    0.4232   44.1079 C.2     1  UNL         0.1014
     48 N           0.7823    0.2233   43.1622 N.3     1  UNL        -0.2892
     49 N          -1.3590    0.3596   43.7844 N.3     1  UNL        -0.2870
     50 C         -10.8322    3.2001   54.4250 C.3     1  UNL        -0.0453
     51 C         -11.7943    3.5544   55.5790 C.3     1  UNL        -0.0412
     52 C         -12.1002    2.7898   58.9425 C.3     1  UNL         0.0037
     53 C          -7.9269    2.2541   58.1975 C.3     1  UNL        -0.0394
     54 H          -7.5979    4.0549   62.5017 H       1  UNL         0.0623
     55 H          -6.8318    3.7389   60.1671 H       1  UNL         0.0626
     56 H         -10.9222    1.4350   61.7831 H       1  UNL         0.0627
     57 H          -9.6471    2.8991   63.3054 H       1  UNL         0.0623
     58 H          -9.7699    0.3768   58.4505 H       1  UNL         0.0626
     59 H         -10.5567   -3.4555   61.1513 H       1  UNL         0.0627
     60 H         -13.0234   -3.2661   61.5151 H       1  UNL         0.0639
     61 H         -14.2008   -1.1724   60.7647 H       1  UNL         0.0840
     62 H          -8.6519   -1.5590   58.9288 H       1  UNL         0.0280
     63 H          -8.5034   -2.5565   60.3786 H       1  UNL         0.0280
     64 H          -8.3615   -0.8007   60.5078 H       1  UNL         0.0280
     65 H         -13.2742    2.6291   56.8516 H       1  UNL         0.0401
     66 H         -14.0735    2.1819   54.6500 H       1  UNL         0.0275
     67 H         -13.6811    0.6285   55.3629 H       1  UNL         0.0275
     68 H         -12.9373    0.8183   52.9640 H       1  UNL         0.0273
     69 H         -11.6183    0.4562   54.0455 H       1  UNL         0.0273
     70 H         -10.8919    1.3425   51.4758 H       1  UNL         0.0474
     71 H          -9.7323    1.3122   52.8143 H       1  UNL         0.0474
     72 H         -10.9727    3.3953   49.9859 H       1  UNL         0.0468
     73 H          -9.9672    4.7913   50.3943 H       1  UNL         0.0468
     74 H         -12.4092    5.0832   51.0235 H       1  UNL         0.0283
     75 H         -11.3194    5.2707   52.3877 H       1  UNL         0.0283
     76 H         -13.0295    2.8323   51.6937 H       1  UNL         0.0273
     77 H         -13.2269    3.8756   53.0883 H       1  UNL         0.0273
     78 H          -8.0969    1.2267   50.6388 H       1  UNL         0.0644
     79 H          -5.6319    1.2346   50.6529 H       1  UNL         0.0643
     80 H          -5.6552    5.0698   52.6229 H       1  UNL         0.0659
     81 H          -3.6359    3.4827   52.4820 H       1  UNL         0.1528
     82 H          -4.5389    2.7397   49.0032 H       1  UNL         0.0643
     83 H          -2.9026    1.9903   47.3468 H       1  UNL         0.0630
     84 H           0.1393    1.8647   50.4242 H       1  UNL         0.0630
     85 H          -1.5253    2.5778   52.0850 H       1  UNL         0.0643
     86 H          -1.6409    1.2247   46.0980 H       1  UNL         0.0637
     87 H           2.4430    0.2672   45.0785 H       1  UNL         0.0630
     88 H           3.1339    0.7603   47.3975 H       1  UNL         0.0623
     89 H           1.4781    1.4736   49.0775 H       1  UNL         0.0629
     90 H           0.3825    0.4895   42.2599 H       1  UNL         0.1889
     91 H          -1.6690   -0.2750   43.0507 H       1  UNL         0.1258
     92 H          -2.0589    0.3348   44.5238 H       1  UNL         0.1258
     93 H         -10.3247    4.1123   54.0924 H       1  UNL         0.0273
     94 H         -10.0431    2.5506   54.8211 H       1  UNL         0.0273
     95 H         -12.5482    4.2670   55.2240 H       1  UNL         0.0275
     96 H         -11.2410    4.0807   56.3637 H       1  UNL         0.0275
     97 H         -11.9519    3.7234   58.3886 H       1  UNL         0.0433
     98 H         -11.7569    2.9536   59.9703 H       1  UNL         0.0433
     99 H         -13.1720    2.5567   58.9646 H       1  UNL         0.0433
    100 H          -6.9746    2.7799   58.0545 H       1  UNL         0.0280
    101 H          -8.6429    2.6768   57.4816 H       1  UNL         0.0280
    102 H          -7.7595    1.2018   57.9358 H       1  UNL         0.0280
@<TRIPOS>BOND
     1     1     2   ar
     2     1     6   ar
     3     1    54    1
     4     2     3   ar
     5     2    55    1
     6     3     4   ar
     7     3    53    1
     8     4     5   ar
     9     4     7    1
    10     5     6   ar
    11     5    56    1
    12     6    57    1
    13     7     8    1
    14     7    15    1
    15     7    58    1
    16     8     9   ar
    17     8    13   ar
    18     9    10   ar
    19     9    14    1
    20    10    11   ar
    21    10    59    1
    22    11    12   ar
    23    11    60    1
    24    12    13   ar
    25    12    61    1
    26    14    62    1
    27    14    63    1
    28    14    64    1
    29    15    16   am
    30    15    52    1
    31    16    17    2
    32    16    18    1
    33    18    19    1
    34    18    51    1
    35    18    65    1
    36    19    20    1
    37    19    66    1
    38    19    67    1
    39    20    21    1
    40    20    68    1
    41    20    69    1
    42    21    22    1
    43    21    26    1
    44    21    50    1
    45    22    23    1
    46    22    70    1
    47    22    71    1
    48    23    24    1
    49    23    27    1
    50    24    25    1
    51    24    72    1
    52    24    73    1
    53    25    26    1
    54    25    74    1
    55    25    75    1
    56    26    76    1
    57    26    77    1
    58    27    28   ar
    59    27    32   ar
    60    28    29   ar
    61    28    78    1
    62    29    30   ar
    63    29    79    1
    64    30    31   ar
    65    30    34    1
    66    31    32   ar
    67    31    80    1
    68    32    33    1
    69    34    35    1
    70    34    81    1
    71    35    36   ar
    72    35    40   ar
    73    36    37   ar
    74    36    82    1
    75    37    38   ar
    76    37    83    1
    77    38    39   ar
    78    38    41    1
    79    39    40   ar
    80    39    84    1
    81    40    85    1
    82    41    42   ar
    83    41    46   ar
    84    42    43   ar
    85    42    86    1
    86    43    44   ar
    87    43    47    1
    88    44    45   ar
    89    44    87    1
    90    45    46   ar
    91    45    88    1
    92    46    89    1
    93    47    48    1
    94    47    49    1
    95    48    90    1
    96    49    91    1
    97    49    92    1
    98    50    51    1
    99    50    93    1
   100    50    94    1
   101    51    95    1
   102    51    96    1
   103    52    97    1
   104    52    98    1
   105    52    99    1
   106    53   100    1
   107    53   101    1
   108    53   102    1
@<TRIPOS>SUBSTRUCTURE
     1 UNL         1 TEMP              0 ****  ****    0 ROOT


##########                                Name:    ZINC000558213406
##########                DOCK_Rotatable_Bonds:                   8
##########                         Heavy_Atoms:                  30
##########                    Molecular_Weight:               408.5
##########                DOCK_Rotatable_Bonds:                   8
##########                       Formal_Charge:          -0.0299987
##########                     HBond_Acceptors:                   7
##########                        HBond_Donors:                   2
##########                         Heavy_Atoms:                  30
##########                          Grid_Score:          -36.188725
##########                     Grid_vdw_energy:          -35.987976
##########                      Grid_es_energy:           -0.200750
##########           Internal_energy_repulsive:            9.216543

@<TRIPOS>MOLECULE
ZINC000558213406
 58 61 1 0 0
SMALL
USER_CHARGES


@<TRIPOS>ATOM
      1 O1        -11.0411   -0.8626   55.6532 O.2     1  ZINC000558213406   -0.5700
      2 C2        -10.3321   -1.8117   55.3796 C.2     1  ZINC000558213406    0.7100
      3 N3        -10.5128   -2.9909   56.0068 N.am    1  ZINC000558213406   -0.6800
      4 C4        -11.5141   -3.1214   56.9785 C.ar    1  ZINC000558213406    0.1700
      5 C5        -12.8398   -3.2714   56.5937 C.ar    1  ZINC000558213406   -0.1300
      6 C6        -13.8260   -3.4006   57.5515 C.ar    1  ZINC000558213406   -0.1100
      7 C7        -13.4926   -3.3800   58.8981 C.ar    1  ZINC000558213406    0.0600
      8 O8        -14.4640   -3.5067   59.8408 O.3     1  ZINC000558213406   -0.2500
      9 C9        -14.7264   -2.4354   60.6346 C.ar    1  ZINC000558213406    0.0700
     10 C10       -15.1689   -1.2382   60.0805 C.ar    1  ZINC000558213406   -0.1500
     11 C11       -15.4232   -0.1738   60.9304 C.ar    1  ZINC000558213406   -0.1300
     12 C12       -15.2308   -0.3345   62.2897 C.ar    1  ZINC000558213406    0.0600
     13 N13       -14.8099   -1.4829   62.7829 N.ar    1  ZINC000558213406   -0.4500
     14 C14       -14.5625   -2.5214   62.0099 C.ar    1  ZINC000558213406    0.0800
     15 C15       -12.1680   -3.2307   59.2830 C.ar    1  ZINC000558213406   -0.1000
     16 C16       -11.1804   -3.1067   58.3260 C.ar    1  ZINC000558213406   -0.1100
     17 N17        -9.3690   -1.6862   54.4451 N.am    1  ZINC000558213406   -0.7300
     18 C18        -9.1725   -0.4044   53.7633 C.3     1  ZINC000558213406    0.1500
     19 H19       -10.1280    0.0939   53.5992 H       1  ZINC000558213406    0.1100
     20 C20        -8.2106    0.5056   54.5720 C.3     1  ZINC000558213406   -0.1400
     21 C21        -7.6210    1.4041   53.4562 C.3     1  ZINC000558213406    0.1000
     22 N22        -7.4742    0.5121   52.2915 N.am    1  ZINC000558213406   -0.6200
     23 C23        -6.6144    0.6902   51.2691 C.2     1  ZINC000558213406    0.5400
     24 O24        -6.5794   -0.1112   50.3596 O.2     1  ZINC000558213406   -0.5300
     25 C25        -5.6964    1.8853   51.2562 C.3     1  ZINC000558213406   -0.1000
     26 C26        -4.4047    1.5282   50.5181 C.3     1  ZINC000558213406   -0.1100
     27 C27        -3.4727    2.7415   50.5049 C.3     1  ZINC000558213406   -0.1200
     28 C28        -4.1621    3.9065   49.7919 C.3     1  ZINC000558213406   -0.1200
     29 C29        -5.4539    4.2635   50.5301 C.3     1  ZINC000558213406   -0.1200
     30 C30        -6.3859    3.0502   50.5433 C.3     1  ZINC000558213406   -0.1100
     31 C31        -8.4248   -0.6051   52.4283 C.3     1  ZINC000558213406    0.1000
     32 H32        -9.9498   -3.7492   55.7856 H       1  ZINC000558213406    0.4100
     33 H33       -13.0995   -3.2867   55.5456 H       1  ZINC000558213406    0.1300
     34 H34       -14.8572   -3.5172   57.2523 H       1  ZINC000558213406    0.1400
     35 H35       -15.3102   -1.1410   59.0143 H       1  ZINC000558213406    0.1400
     36 H36       -15.7675    0.7706   60.5353 H       1  ZINC000558213406    0.1400
     37 H37       -15.4275    0.4917   62.9569 H       1  ZINC000558213406    0.1600
     38 H38       -14.2193   -3.4458   62.4504 H       1  ZINC000558213406    0.1700
     39 H39       -11.9090   -3.2148   60.3315 H       1  ZINC000558213406    0.1400
     40 H40       -10.1493   -2.9908   58.6258 H       1  ZINC000558213406    0.1500
     41 H41        -8.8061   -2.4445   54.2239 H       1  ZINC000558213406    0.4000
     42 H42        -8.7578    1.0999   55.3037 H       1  ZINC000558213406    0.0900
     43 H43        -7.4294   -0.0822   55.0538 H       1  ZINC000558213406    0.0800
     44 H44        -8.3055    2.2202   53.2250 H       1  ZINC000558213406    0.0700
     45 H45        -6.6500    1.7962   53.7584 H       1  ZINC000558213406    0.0800
     46 H46        -5.4615    2.1741   52.2807 H       1  ZINC000558213406    0.0900
     47 H47        -3.9134    0.6982   51.0260 H       1  ZINC000558213406    0.0600
     48 H48        -4.6396    1.2393   49.4936 H       1  ZINC000558213406    0.0700
     49 H49        -3.2378    3.0303   51.5294 H       1  ZINC000558213406    0.0600
     50 H50        -2.5525    2.4871   49.9791 H       1  ZINC000558213406    0.0700
     51 H51        -3.4982    4.7708   49.7826 H       1  ZINC000558213406    0.0600
     52 H52        -4.3970    3.6176   48.7675 H       1  ZINC000558213406    0.0600
     53 H53        -5.2190    4.5524   51.5546 H       1  ZINC000558213406    0.0600
     54 H54        -5.9450    5.0935   50.0221 H       1  ZINC000558213406    0.0700
     55 H55        -6.6208    2.7614   49.5188 H       1  ZINC000558213406    0.0800
     56 H56        -7.3061    3.3046   51.0691 H       1  ZINC000558213406    0.0600
     57 H57        -7.8845   -1.5514   52.4473 H       1  ZINC000558213406    0.0800
     58 H58        -9.1305   -0.5953   51.5975 H       1  ZINC000558213406    0.0800
@<TRIPOS>BOND
     1     1     2    2
     2     2     3   am
     3     2    17   am
     4     3     4    1
     5     3    32    1
     6     4    16   ar
     7     4     5   ar
     8     5     6   ar
     9     5    33    1
    10     6     7   ar
    11     6    34    1
    12     7     8    1
    13     7    15   ar
    14     8     9    1
    15     9    14   ar
    16     9    10   ar
    17    10    11   ar
    18    10    35    1
    19    11    12   ar
    20    11    36    1
    21    12    13   ar
    22    12    37    1
    23    13    14   ar
    24    14    38    1
    25    15    16   ar
    26    15    39    1
    27    16    40    1
    28    17    18    1
    29    17    41    1
    30    18    19    1
    31    18    31    1
    32    18    20    1
    33    20    21    1
    34    20    42    1
    35    20    43    1
    36    21    22    1
    37    21    44    1
    38    21    45    1
    39    22    23   am
    40    22    31    1
    41    23    24    2
    42    23    25    1
    43    25    30    1
    44    25    26    1
    45    25    46    1
    46    26    27    1
    47    26    47    1
    48    26    48    1
    49    27    28    1
    50    27    49    1
    51    27    50    1
    52    28    29    1
    53    28    51    1
    54    28    52    1
    55    29    30    1
    56    29    53    1
    57    29    54    1
    58    30    55    1
    59    30    56    1
    60    31    57    1
    61    31    58    1
@<TRIPOS>SUBSTRUCTURE
     1 ZINC000558213406        1 TEMP              0 ****  ****    0 ROOT


##########                                Name:    ZINC001573443776
##########                DOCK_Rotatable_Bonds:                   8
##########                         Heavy_Atoms:                  28
##########                    Molecular_Weight:             386.457
##########                DOCK_Rotatable_Bonds:                   8
##########                       Formal_Charge:          0.00999954
##########                     HBond_Acceptors:                  10
##########                        HBond_Donors:                   3
##########                         Heavy_Atoms:                  28
##########                          Grid_Score:          -36.153084
##########                     Grid_vdw_energy:          -35.249554
##########                      Grid_es_energy:           -0.903528
##########           Internal_energy_repulsive:           29.959742

@<TRIPOS>MOLECULE
ZINC001573443776
 54 56 1 0 0
SMALL
USER_CHARGES


@<TRIPOS>ATOM
      1 C1          2.7116    0.9625   47.1661 C.3     1  ZINC001573443776   -0.1800
      2 C2          1.6446    0.4162   46.2528 C.2     1  ZINC001573443776    0.5100
      3 O3          1.9555   -0.1260   45.2133 O.2     1  ZINC001573443776   -0.5400
      4 N4          0.3451    0.5301   46.5910 N.am    1  ZINC001573443776   -0.6100
      5 C5         -0.7065    0.0025   45.7109 C.3     1  ZINC001573443776    0.1100
      6 C6         -1.7131    1.1202   45.4202 C.3     1  ZINC001573443776   -0.1300
      7 C7         -2.2288    1.6933   46.7422 C.3     1  ZINC001573443776   -0.1000
      8 C8         -1.0610    2.2884   47.5323 C.3     1  ZINC001573443776   -0.1200
      9 H9         -0.5794    3.0662   46.9396 H       1  ZINC001573443776    0.1000
     10 C10        -1.5747    2.8819   48.8188 C.2     1  ZINC001573443776    0.5200
     11 O11        -0.9351    3.7406   49.3883 O.2     1  ZINC001573443776   -0.5300
     12 N12        -2.7448    2.4582   49.3364 N.am    1  ZINC001573443776   -0.7300
     13 C13        -3.2449    3.0364   50.5861 C.3     1  ZINC001573443776    0.1100
     14 C14        -4.7347    2.7209   50.7337 C.3     1  ZINC001573443776    0.1400
     15 H15        -5.1380    3.2631   51.5888 H       1  ZINC001573443776    0.0900
     16 C16        -5.4746    3.1476   49.4642 C.3     1  ZINC001573443776   -0.1700
     17 N17        -4.9109    1.2813   50.9409 N.pl3   1  ZINC001573443776   -0.7200
     18 C18        -5.9926    0.8126   51.6758 C.ar    1  ZINC001573443776    0.4300
     19 C19        -6.8860   -0.0799   51.0903 C.ar    1  ZINC001573443776   -0.2500
     20 C20        -7.9586   -0.5414   51.8277 C.ar    1  ZINC001573443776    0.0100
     21 C21        -8.1050   -0.0898   53.1437 C.ar    1  ZINC001573443776   -0.1400
     22 C22        -9.2408   -0.5569   53.9773 C.2     1  ZINC001573443776    0.2400
     23 N23       -10.4728   -0.0879   53.9635 N.2     1  ZINC001573443776   -0.3000
     24 N24       -11.1582   -0.7545   54.8275 N.pl3   1  ZINC001573443776   -0.2300
     25 N25       -10.3999   -1.6308   55.3883 N.2     1  ZINC001573443776   -0.0500
     26 N26        -9.2149   -1.5416   54.8866 N.2     1  ZINC001573443776   -0.2700
     27 C27        -7.1710    0.8030   53.6607 C.ar    1  ZINC001573443776    0.2300
     28 C28        -7.3166    1.2975   55.0767 C.3     1  ZINC001573443776   -0.1200
     29 N29        -6.1578    1.2166   52.9265 N.ar    1  ZINC001573443776   -0.5400
     30 C30        -0.0469    1.1789   47.8496 C.3     1  ZINC001573443776    0.1200
     31 H31         2.9808    1.9699   46.8486 H       1  ZINC001573443776    0.0900
     32 H32         2.3346    0.9923   48.1883 H       1  ZINC001573443776    0.0800
     33 H33         3.5913    0.3204   47.1219 H       1  ZINC001573443776    0.1000
     34 H34        -0.2627   -0.3415   44.7767 H       1  ZINC001573443776    0.1000
     35 H35        -1.2138   -0.8268   46.2040 H       1  ZINC001573443776    0.0700
     36 H36        -1.2254    1.9090   44.8473 H       1  ZINC001573443776    0.0700
     37 H37        -2.5486    0.7175   44.8476 H       1  ZINC001573443776    0.0800
     38 H38        -2.9636    2.4722   46.5383 H       1  ZINC001573443776    0.0800
     39 H39        -2.6944    0.8988   47.3254 H       1  ZINC001573443776    0.0700
     40 H40        -3.2557    1.7706   48.8815 H       1  ZINC001573443776    0.4000
     41 H41        -2.6983    2.6110   51.4277 H       1  ZINC001573443776    0.0900
     42 H42        -3.1023    4.1170   50.5692 H       1  ZINC001573443776    0.0800
     43 H43        -5.3435    4.2186   49.3099 H       1  ZINC001573443776    0.0700
     44 H44        -5.0714    2.6053   48.6090 H       1  ZINC001573443776    0.0700
     45 H45        -6.5360    2.9229   49.5693 H       1  ZINC001573443776    0.0700
     46 H46        -4.2721    0.6555   50.5652 H       1  ZINC001573443776    0.4100
     47 H47        -6.7423   -0.4072   50.0712 H       1  ZINC001573443776    0.1400
     48 H48        -8.6674   -1.2341   51.3987 H       1  ZINC001573443776    0.1400
     49 H49       -12.0980   -0.6173   55.0247 H       1  ZINC001573443776    0.4800
     50 H50        -6.7830    0.6286   55.7520 H       1  ZINC001573443776    0.0800
     51 H51        -6.8998    2.3016   55.1555 H       1  ZINC001573443776    0.0800
     52 H52        -8.3723    1.3202   55.3469 H       1  ZINC001573443776    0.1100
     53 H53        -0.5022    0.4477   48.5175 H       1  ZINC001573443776    0.0800
     54 H54         0.8329    1.6129   48.3249 H       1  ZINC001573443776    0.0900
@<TRIPOS>BOND
     1     1     2    1
     2     1    31    1
     3     1    32    1
     4     1    33    1
     5     2     3    2
     6     2     4   am
     7     4    30    1
     8     4     5    1
     9     5     6    1
    10     5    34    1
    11     5    35    1
    12     6     7    1
    13     6    36    1
    14     6    37    1
    15     7     8    1
    16     7    38    1
    17     7    39    1
    18     8     9    1
    19     8    10    1
    20     8    30    1
    21    10    11    2
    22    10    12   am
    23    12    13    1
    24    12    40    1
    25    13    14    1
    26    13    41    1
    27    13    42    1
    28    14    15    1
    29    14    16    1
    30    14    17    1
    31    16    43    1
    32    16    44    1
    33    16    45    1
    34    17    18    1
    35    17    46    1
    36    18    29   ar
    37    18    19   ar
    38    19    20   ar
    39    19    47    1
    40    20    21   ar
    41    20    48    1
    42    21    22    1
    43    21    27   ar
    44    22    26    1
    45    22    23    2
    46    23    24    1
    47    24    25    1
    48    24    49    1
    49    25    26    2
    50    27    28    1
    51    27    29   ar
    52    28    50    1
    53    28    51    1
    54    28    52    1
    55    30    53    1
    56    30    54    1
@<TRIPOS>SUBSTRUCTURE
     1 ZINC001573443776        1 TEMP              0 ****  ****    0 ROOT


##########                                Name:    ZINC000185598309
##########                DOCK_Rotatable_Bonds:                  14
##########                         Heavy_Atoms:                  25
##########                    Molecular_Weight:             347.457
##########                DOCK_Rotatable_Bonds:                  14
##########                       Formal_Charge:               -0.02
##########                     HBond_Acceptors:                   6
##########                        HBond_Donors:                   4
##########                         Heavy_Atoms:                  25
##########                          Grid_Score:          -36.149612
##########                     Grid_vdw_energy:          -33.131554
##########                      Grid_es_energy:           -3.018060
##########           Internal_energy_repulsive:           16.442030

@<TRIPOS>MOLECULE
ZINC000185598309
 54 54 1 0 0
SMALL
USER_CHARGES


@<TRIPOS>ATOM
      1 C1        -10.1123   -1.4768   55.4039 C.3     1  ZINC000185598309   -0.1300
      2 C2        -10.6349   -1.2105   54.0158 C.2     1  ZINC000185598309   -0.1600
      3 C3         -9.9340   -0.4850   53.1800 C.2     1  ZINC000185598309   -0.1600
      4 C4         -8.6059    0.0848   53.6072 C.3     1  ZINC000185598309   -0.0900
      5 C5         -7.7084    0.2611   52.3807 C.3     1  ZINC000185598309    0.1700
      6 H6         -8.2108    0.8960   51.6510 H       1  ZINC000185598309    0.1000
      7 C7         -7.4232   -1.1064   51.7566 C.3     1  ZINC000185598309    0.0600
      8 O8         -6.5917   -0.9411   50.6064 O.3     1  ZINC000185598309   -0.5700
      9 N9         -6.4465    0.8860   52.7849 N.am    1  ZINC000185598309   -0.7300
     10 C10        -5.8583    1.7964   51.9838 C.2     1  ZINC000185598309    0.7000
     11 O11        -6.3759    2.1002   50.9264 O.2     1  ZINC000185598309   -0.5900
     12 N12        -4.6966    2.3701   52.3550 N.am    1  ZINC000185598309   -0.7400
     13 C13        -4.0565    3.3584   51.4833 C.3     1  ZINC000185598309    0.1800
     14 C14        -2.6371    2.9364   51.2030 C.ar    1  ZINC000185598309   -0.0900
     15 C15        -1.6150    3.3568   52.0337 C.ar    1  ZINC000185598309   -0.1100
     16 C16        -0.3110    2.9721   51.7797 C.ar    1  ZINC000185598309   -0.1000
     17 C17        -0.0262    2.1662   50.6951 C.ar    1  ZINC000185598309   -0.1100
     18 C18        -1.0508    1.7419   49.8589 C.ar    1  ZINC000185598309    0.1400
     19 N19        -0.7656    0.9249   48.7594 N.am    1  ZINC000185598309   -0.6800
     20 C20        -0.8172    1.4319   47.5117 C.2     1  ZINC000185598309    0.5200
     21 O21        -1.1108    2.5964   47.3420 O.2     1  ZINC000185598309   -0.5200
     22 C22        -0.5100    0.5520   46.3275 C.3     1  ZINC000185598309   -0.1100
     23 H23        -0.7895   -0.4764   46.5567 H       1  ZINC000185598309    0.1000
     24 C24         0.9870    0.6167   46.0186 C.3     1  ZINC000185598309   -0.1500
     25 C25        -1.3030    1.0371   45.1123 C.3     1  ZINC000185598309   -0.1100
     26 C26        -1.4597   -0.1116   44.1138 C.3     1  ZINC000185598309   -0.1600
     27 C27        -2.3596    2.1256   50.1197 C.ar    1  ZINC000185598309   -0.1300
     28 H28       -10.8270   -2.0933   55.9492 H       1  ZINC000185598309    0.0600
     29 H29        -9.1577   -1.9989   55.3388 H       1  ZINC000185598309    0.0600
     30 H30        -9.9743   -0.5310   55.9279 H       1  ZINC000185598309    0.0600
     31 H31       -11.5874   -1.6176   53.7100 H       1  ZINC000185598309    0.1100
     32 H32       -10.3081   -0.2952   52.1847 H       1  ZINC000185598309    0.1100
     33 H33        -8.7622    1.0519   54.0852 H       1  ZINC000185598309    0.0900
     34 H34        -8.1284   -0.5959   54.3121 H       1  ZINC000185598309    0.0800
     35 H35        -6.9152   -1.7391   52.4845 H       1  ZINC000185598309    0.0500
     36 H36        -8.3626   -1.5742   51.4617 H       1  ZINC000185598309    0.0500
     37 H37        -6.9813   -0.3878   49.9156 H       1  ZINC000185598309    0.3800
     38 H38        -6.0342    0.6445   53.6291 H       1  ZINC000185598309    0.4000
     39 H39        -4.2843    2.1286   53.1991 H       1  ZINC000185598309    0.4000
     40 H40        -4.6073    3.4264   50.5452 H       1  ZINC000185598309    0.0700
     41 H41        -4.0559    4.3309   51.9756 H       1  ZINC000185598309    0.0800
     42 H42        -1.8351    3.9870   52.8826 H       1  ZINC000185598309    0.1300
     43 H43         0.4854    3.3026   52.4300 H       1  ZINC000185598309    0.1300
     44 H44         0.9923    1.8664   50.4971 H       1  ZINC000185598309    0.1300
     45 H45        -0.5308   -0.0064   48.8951 H       1  ZINC000185598309    0.4100
     46 H46         1.5520    0.2711   46.8843 H       1  ZINC000185598309    0.0600
     47 H47         1.2092   -0.0196   45.1620 H       1  ZINC000185598309    0.0800
     48 H48         1.2665    1.6451   45.7893 H       1  ZINC000185598309    0.0600
     49 H49        -2.2879    1.3766   45.4331 H       1  ZINC000185598309    0.0700
     50 H50        -0.7714    1.8616   44.6371 H       1  ZINC000185598309    0.0700
     51 H51        -0.4748   -0.4511   43.7931 H       1  ZINC000185598309    0.0600
     52 H52        -1.9913   -0.9360   44.5890 H       1  ZINC000185598309    0.0600
     53 H53        -2.0246    0.2341   43.2481 H       1  ZINC000185598309    0.0600
     54 H54        -3.1585    1.7973   49.4714 H       1  ZINC000185598309    0.1300
@<TRIPOS>BOND
     1     1     2    1
     2     1    28    1
     3     1    29    1
     4     1    30    1
     5     2     3    2
     6     2    31    1
     7     3     4    1
     8     3    32    1
     9     4     5    1
    10     4    33    1
    11     4    34    1
    12     5     6    1
    13     5     7    1
    14     5     9    1
    15     7     8    1
    16     7    35    1
    17     7    36    1
    18     8    37    1
    19     9    10   am
    20     9    38    1
    21    10    11    2
    22    10    12   am
    23    12    13    1
    24    12    39    1
    25    13    14    1
    26    13    40    1
    27    13    41    1
    28    14    27   ar
    29    14    15   ar
    30    15    16   ar
    31    15    42    1
    32    16    17   ar
    33    16    43    1
    34    17    18   ar
    35    17    44    1
    36    18    19    1
    37    18    27   ar
    38    19    20   am
    39    19    45    1
    40    20    21    2
    41    20    22    1
    42    22    23    1
    43    22    24    1
    44    22    25    1
    45    24    46    1
    46    24    47    1
    47    24    48    1
    48    25    26    1
    49    25    49    1
    50    25    50    1
    51    26    51    1
    52    26    52    1
    53    26    53    1
    54    27    54    1
@<TRIPOS>SUBSTRUCTURE
     1 ZINC000185598309        1 TEMP              0 ****  ****    0 ROOT


##########                                Name:     oleObject14.pdb
##########                DOCK_Rotatable_Bonds:                   9
##########                         Heavy_Atoms:                  33
##########                    Molecular_Weight:             484.424
##########                DOCK_Rotatable_Bonds:                   9
##########                       Formal_Charge:         0.000299782
##########                     HBond_Acceptors:                   7
##########                        HBond_Donors:                   1
##########                         Heavy_Atoms:                  33
##########                          Grid_Score:          -36.024063
##########                     Grid_vdw_energy:          -35.507385
##########                      Grid_es_energy:           -0.516677
##########           Internal_energy_repulsive:           15.119288

@<TRIPOS>MOLECULE
oleObject14.pdb
 60 63 1 0 0
SMALL
NO_CHARGES


@<TRIPOS>ATOM
      1 C          -6.2533    0.9444   52.2079 C.ar    1  UNL         0.0422
      2 C          -5.6332    1.8353   53.0980 C.ar    1  UNL        -0.0408
      3 C          -6.1215    1.9755   54.4079 C.ar    1  UNL        -0.0288
      4 C          -7.2363    1.2224   54.8346 C.ar    1  UNL         0.0937
      5 C          -7.8527    0.3298   53.9340 C.ar    1  UNL         0.0723
      6 C          -7.3623    0.1917   52.6247 C.ar    1  UNL        -0.0221
      7 CL         -9.2400   -0.6254   54.4226 Cl      1  UNL        -0.0814
      8 O          -7.7472    1.3307   56.1138 O.3     1  UNL        -0.3432
      9 C          -7.1753    2.1723   57.1307 C.3     1  UNL         0.0661
     10 C          -8.2758    2.4683   58.1705 C.3     1  UNL         0.0222
     11 N          -8.3660    1.4493   59.2398 N.4     1  UNL        -0.3010
     12 C          -9.3364    1.7751   60.3110 C.3     1  UNL        -0.0010
     13 C          -9.3052    0.7346   61.4527 C.3     1  UNL        -0.0289
     14 C          -9.5022   -0.7159   60.9496 C.3     1  UNL         0.0382
     15 C          -8.5424   -1.0034   59.7675 C.3     1  UNL        -0.0289
     16 C          -8.5634    0.0952   58.6787 C.3     1  UNL        -0.0010
     17 C         -10.9813   -1.0010   60.5895 C.2     1  UNL         0.2156
     18 O         -11.6086   -0.2843   59.8311 O.2     1  UNL        -0.2774
     19 N         -11.6122   -2.1276   61.1012 N.am    1  UNL        -0.3025
     20 C         -13.0030   -2.5627   60.8732 C.3     1  UNL         0.0900
     21 C         -14.0024   -1.4081   60.9142 C.ar    1  UNL        -0.0217
     22 C         -14.3923   -0.7391   59.7364 C.ar    1  UNL        -0.0568
     23 C         -15.3038    0.3278   59.7935 C.ar    1  UNL        -0.0619
     24 C         -15.8358    0.7326   61.0278 C.ar    1  UNL        -0.0622
     25 C         -15.4573    0.0675   62.2045 C.ar    1  UNL        -0.0619
     26 C         -14.5458   -0.9994   62.1471 C.ar    1  UNL        -0.0568
     27 C         -13.1416   -3.3504   59.5740 C.ar    1  UNL         0.0652
     28 C         -14.3250   -4.0466   59.2517 C.ar    1  UNL        -0.0383
     29 C         -14.3886   -4.7609   58.0447 C.ar    1  UNL        -0.0588
     30 C         -13.2662   -4.7556   57.2020 C.ar    1  UNL        -0.0438
     31 C         -12.1262   -4.0369   57.6009 C.ar    1  UNL         0.0272
     32 N         -12.0634   -3.3505   58.7598 N.ar    1  UNL        -0.2590
     33 CL         -5.6425    0.7720   50.5764 Cl      1  UNL        -0.0843
     34 H          -4.7747    2.4172   52.7747 H       1  UNL         0.0639
     35 H          -5.6263    2.6697   55.0791 H       1  UNL         0.0652
     36 H          -7.8415   -0.4975   51.9351 H       1  UNL         0.0655
     37 H          -6.8147    3.1067   56.6841 H       1  UNL         0.0586
     38 H          -6.3381    1.6597   57.6217 H       1  UNL         0.0586
     39 H          -9.2338    2.5150   57.6363 H       1  UNL         0.0455
     40 H          -8.0960    3.4577   58.6112 H       1  UNL         0.0455
     41 H         -10.3496    1.8218   59.8907 H       1  UNL         0.0431
     42 H          -9.1138    2.7556   60.7473 H       1  UNL         0.0431
     43 H         -10.0673    0.9850   62.1997 H       1  UNL         0.0288
     44 H          -8.3346    0.8044   61.9607 H       1  UNL         0.0288
     45 H          -9.1953   -1.3862   61.7568 H       1  UNL         0.0402
     46 H          -8.7786   -1.9770   59.3195 H       1  UNL         0.0288
     47 H          -7.5192   -1.0790   60.1578 H       1  UNL         0.0288
     48 H          -9.5184    0.0557   58.1399 H       1  UNL         0.0431
     49 H          -7.7710   -0.1240   57.9513 H       1  UNL         0.0431
     50 H         -11.0165   -2.7661   61.6129 H       1  UNL         0.1504
     51 H         -13.2529   -3.2579   61.6849 H       1  UNL         0.0624
     52 H         -13.9832   -1.0379   58.7757 H       1  UNL         0.0626
     53 H         -15.5962    0.8409   58.8818 H       1  UNL         0.0623
     54 H         -16.5411    1.5576   61.0719 H       1  UNL         0.0623
     55 H         -15.8708    0.3772   63.1601 H       1  UNL         0.0623
     56 H         -14.2609   -1.5090   63.0634 H       1  UNL         0.0626
     57 H         -15.1784   -4.0349   59.9229 H       1  UNL         0.0643
     58 H         -15.2867   -5.3061   57.7693 H       1  UNL         0.0624
     59 H         -13.2776   -5.2965   56.2603 H       1  UNL         0.0639
     60 H         -11.2360   -4.0101   56.9738 H       1  UNL         0.0840
@<TRIPOS>BOND
     1     1     2   ar
     2     1     6   ar
     3     1    33    1
     4     2     3   ar
     5     2    34    1
     6     3     4   ar
     7     3    35    1
     8     4     5   ar
     9     4     8    1
    10     5     6   ar
    11     5     7    1
    12     6    36    1
    13     8     9    1
    14     9    10    1
    15     9    37    1
    16     9    38    1
    17    10    11    1
    18    10    39    1
    19    10    40    1
    20    11    12    1
    21    11    16    1
    22    12    13    1
    23    12    41    1
    24    12    42    1
    25    13    14    1
    26    13    43    1
    27    13    44    1
    28    14    15    1
    29    14    17    1
    30    14    45    1
    31    15    16    1
    32    15    46    1
    33    15    47    1
    34    16    48    1
    35    16    49    1
    36    17    18    2
    37    17    19   am
    38    19    20    1
    39    19    50    1
    40    20    21    1
    41    20    27    1
    42    20    51    1
    43    21    22   ar
    44    21    26   ar
    45    22    23   ar
    46    22    52    1
    47    23    24   ar
    48    23    53    1
    49    24    25   ar
    50    24    54    1
    51    25    26   ar
    52    25    55    1
    53    26    56    1
    54    27    28   ar
    55    27    32   ar
    56    28    29   ar
    57    28    57    1
    58    29    30   ar
    59    29    58    1
    60    30    31   ar
    61    30    59    1
    62    31    32   ar
    63    31    60    1
@<TRIPOS>SUBSTRUCTURE
     1 UNL         1 TEMP              0 ****  ****    0 ROOT


##########                                Name:    ZINC001039825450
##########                DOCK_Rotatable_Bonds:                   8
##########                         Heavy_Atoms:                  24
##########                    Molecular_Weight:             337.339
##########                DOCK_Rotatable_Bonds:                   8
##########                       Formal_Charge:           0.0100001
##########                     HBond_Acceptors:                  11
##########                        HBond_Donors:                   4
##########                         Heavy_Atoms:                  24
##########                          Grid_Score:          -35.984589
##########                     Grid_vdw_energy:          -32.990082
##########                      Grid_es_energy:           -2.994506
##########           Internal_energy_repulsive:            7.109971

@<TRIPOS>MOLECULE
ZINC001039825450
 43 45 1 0 0
SMALL
USER_CHARGES


@<TRIPOS>ATOM
      1 O1         -2.4229    2.2513   46.3456 O.2     1  ZINC001039825450   -0.5100
      2 C2         -1.9694    1.5834   47.2507 C.2     1  ZINC001039825450    0.5000
      3 C3         -0.8494    0.6115   46.9819 C.3     1  ZINC001039825450    0.1300
      4 N4         -0.7369    0.3829   45.5392 N.pl3   1  ZINC001039825450   -0.1500
      5 N5          0.3522    0.4950   44.8646 N.2     1  ZINC001039825450   -0.2800
      6 C6          0.0980    0.2209   43.6050 C.2     1  ZINC001039825450   -0.0200
      7 C7         -1.2652   -0.0775   43.5460 C.2     1  ZINC001039825450   -0.0200
      8 N8         -1.7124    0.0374   44.7759 N.2     1  ZINC001039825450   -0.2800
      9 N9         -2.4632    1.7143   48.4979 N.am    1  ZINC001039825450   -0.7300
     10 C10        -3.5519    2.6590   48.7591 C.3     1  ZINC001039825450    0.1000
     11 C11        -3.9807    2.5506   50.2238 C.3     1  ZINC001039825450    0.1100
     12 O12        -2.8598    2.7312   51.0916 O.3     1  ZINC001039825450   -0.5400
     13 C13        -5.0998    3.5761   50.5455 C.3     1  ZINC001039825450   -0.1600
     14 C14        -5.8233    2.8858   51.7287 C.3     1  ZINC001039825450    0.1000
     15 N15        -5.7937    1.4484   51.4024 N.am    1  ZINC001039825450   -0.6100
     16 C16        -6.6569    0.5208   51.8612 C.2     1  ZINC001039825450    0.5200
     17 O17        -6.5361   -0.6385   51.5261 O.2     1  ZINC001039825450   -0.5100
     18 C18        -7.7725    0.9241   52.7908 C.3     1  ZINC001039825450    0.1100
     19 H19        -8.1533    1.9101   52.5247 H       1  ZINC001039825450    0.1200
     20 C20        -7.2898    0.9075   54.2542 C.3     1  ZINC001039825450    0.1100
     21 N21        -8.1489   -0.0979   54.8972 N.am    1  ZINC001039825450   -0.7400
     22 C22        -8.9965   -0.5983   53.9888 C.2     1  ZINC001039825450    0.7100
     23 O23        -9.8222   -1.4512   54.2515 O.2     1  ZINC001039825450   -0.5800
     24 N24        -8.8539   -0.0719   52.7619 N.am    1  ZINC001039825450   -0.7200
     25 C25        -4.6666    1.1946   50.4930 C.3     1  ZINC001039825450    0.1200
     26 H26         0.0871    1.0230   47.3587 H       1  ZINC001039825450    0.1400
     27 H27        -1.0594   -0.3329   47.4840 H       1  ZINC001039825450    0.1400
     28 H28         0.7992    0.2257   42.7837 H       1  ZINC001039825450    0.2000
     29 H29        -1.8341   -0.3511   42.6696 H       1  ZINC001039825450    0.2000
     30 H30        -2.0977    1.1829   49.2224 H       1  ZINC001039825450    0.4000
     31 H31        -3.2095    3.6735   48.5550 H       1  ZINC001039825450    0.0900
     32 H32        -4.3989    2.4248   48.1143 H       1  ZINC001039825450    0.0900
     33 H33        -2.1731    2.0576   50.9924 H       1  ZINC001039825450    0.3800
     34 H34        -4.6768    4.5330   50.8509 H       1  ZINC001039825450    0.0900
     35 H35        -5.7713    3.7008   49.6960 H       1  ZINC001039825450    0.0900
     36 H36        -5.2910    3.0743   52.6608 H       1  ZINC001039825450    0.0800
     37 H37        -6.8526    3.2372   51.8008 H       1  ZINC001039825450    0.0800
     38 H38        -6.2432    0.6077   54.3085 H       1  ZINC001039825450    0.0900
     39 H39        -7.4332    1.8847   54.7154 H       1  ZINC001039825450    0.1000
     40 H40        -8.1082   -0.3575   55.8309 H       1  ZINC001039825450    0.4400
     41 H41        -9.3791   -0.3124   51.9826 H       1  ZINC001039825450    0.4400
     42 H42        -5.0332    0.7725   49.5573 H       1  ZINC001039825450    0.0900
     43 H43        -3.9605    0.5083   50.9603 H       1  ZINC001039825450    0.0900
@<TRIPOS>BOND
     1     1     2    2
     2     2     3    1
     3     2     9   am
     4     3     4    1
     5     3    26    1
     6     3    27    1
     7     4     8    1
     8     4     5    1
     9     5     6    2
    10     6     7    1
    11     6    28    1
    12     7     8    2
    13     7    29    1
    14     9    10    1
    15     9    30    1
    16    10    11    1
    17    10    31    1
    18    10    32    1
    19    11    25    1
    20    11    12    1
    21    11    13    1
    22    12    33    1
    23    13    14    1
    24    13    34    1
    25    13    35    1
    26    14    15    1
    27    14    36    1
    28    14    37    1
    29    15    16   am
    30    15    25    1
    31    16    17    2
    32    16    18    1
    33    18    19    1
    34    18    24    1
    35    18    20    1
    36    20    21    1
    37    20    38    1
    38    20    39    1
    39    21    22   am
    40    21    40    1
    41    22    23    2
    42    22    24   am
    43    24    41    1
    44    25    42    1
    45    25    43    1
@<TRIPOS>SUBSTRUCTURE
     1 ZINC001039825450        1 TEMP              0 ****  ****    0 ROOT


##########                                Name:    ZINC001109848453
##########                DOCK_Rotatable_Bonds:                   8
##########                         Heavy_Atoms:                  24
##########                    Molecular_Weight:             328.337
##########                DOCK_Rotatable_Bonds:                   8
##########                       Formal_Charge:          0.00999966
##########                     HBond_Acceptors:                  11
##########                        HBond_Donors:                   2
##########                         Heavy_Atoms:                  24
##########                          Grid_Score:          -35.954601
##########                     Grid_vdw_energy:          -32.540359
##########                      Grid_es_energy:           -3.414242
##########           Internal_energy_repulsive:            6.608082

@<TRIPOS>MOLECULE
ZINC001109848453
 40 43 1 0 0
SMALL
USER_CHARGES


@<TRIPOS>ATOM
      1 O1         -9.6353    0.5121   62.9236 O.2     1  ZINC001109848453   -0.5000
      2 C2         -8.6023   -0.1132   62.8103 C.2     1  ZINC001109848453    0.5000
      3 C3         -7.6879   -0.2791   63.9967 C.3     1  ZINC001109848453    0.1100
      4 N4         -8.3897    0.1315   65.2153 N.pl3   1  ZINC001109848453   -0.3700
      5 C5         -8.5887    1.3895   65.6453 C.2     1  ZINC001109848453    0.2600
      6 N6         -9.2559    1.3336   66.7694 N.2     1  ZINC001109848453   -0.5400
      7 C7         -9.4998    0.0629   67.0874 C.2     1  ZINC001109848453    0.2000
      8 N8         -8.9934   -0.7106   66.1633 N.2     1  ZINC001109848453   -0.2900
      9 N9         -8.2747   -0.6644   61.6248 N.am    1  ZINC001109848453   -0.7300
     10 C10        -9.1636   -0.5031   60.4715 C.3     1  ZINC001109848453    0.1700
     11 H11       -10.0649    0.0274   60.7787 H       1  ZINC001109848453    0.1000
     12 C12        -9.5440   -1.8802   59.9242 C.3     1  ZINC001109848453    0.1200
     13 N13       -10.8662   -2.2582   60.4293 N.pl3   1  ZINC001109848453   -0.6800
     14 C14       -11.7510   -2.9410   59.6111 C.2     1  ZINC001109848453    0.4900
     15 N15       -11.3385   -3.4580   58.4699 N.2     1  ZINC001109848453   -0.5300
     16 C16       -12.1785   -4.1195   57.6698 C.2     1  ZINC001109848453    0.1400
     17 C17       -13.4773   -4.2844   57.9951 C.2     1  ZINC001109848453   -0.0500
     18 N18       -13.9588   -3.7692   59.1664 N.pl3   1  ZINC001109848453   -0.1800
     19 N19       -15.1119   -3.7616   59.7352 N.2     1  ZINC001109848453   -0.1000
     20 N20       -15.0304   -3.1267   60.8529 N.2     1  ZINC001109848453   -0.0400
     21 N21       -13.8237   -2.7076   61.0355 N.2     1  ZINC001109848453   -0.2600
     22 C22       -13.1041   -3.0953   59.9945 C.2     1  ZINC001109848453    0.1000
     23 C23        -8.4464    0.2980   59.3829 C.3     1  ZINC001109848453   -0.1800
     24 C24        -9.2028    1.4699   58.7540 C.3     1  ZINC001109848453   -0.1700
     25 C25        -8.0419    1.7358   59.7145 C.3     1  ZINC001109848453   -0.1700
     26 H26        -7.3910   -1.3244   64.0832 H       1  ZINC001109848453    0.1300
     27 H27        -6.8014    0.3404   63.8616 H       1  ZINC001109848453    0.1200
     28 H28        -8.2555    2.2894   65.1498 H       1  ZINC001109848453    0.2200
     29 H29       -10.0331   -0.2733   67.9643 H       1  ZINC001109848453    0.2200
     30 H30        -7.4504   -1.1678   61.5352 H       1  ZINC001109848453    0.4000
     31 H31        -9.5677   -1.8446   58.8351 H       1  ZINC001109848453    0.1000
     32 H32        -8.8075   -2.6159   60.2476 H       1  ZINC001109848453    0.0900
     33 H33       -11.1221   -2.0303   61.3368 H       1  ZINC001109848453    0.4200
     34 H34       -11.8101   -4.5312   56.7418 H       1  ZINC001109848453    0.2000
     35 H35       -14.1366   -4.8230   57.3305 H       1  ZINC001109848453    0.1900
     36 H36        -7.7809   -0.2761   58.7382 H       1  ZINC001109848453    0.1100
     37 H37        -9.0352    1.6669   57.6952 H       1  ZINC001109848453    0.1000
     38 H38       -10.2113    1.6701   59.1158 H       1  ZINC001109848453    0.1000
     39 H39        -8.2867    2.1110   60.7082 H       1  ZINC001109848453    0.1200
     40 H40        -7.1106    2.1078   59.2877 H       1  ZINC001109848453    0.0900
@<TRIPOS>BOND
     1     1     2    2
     2     2     3    1
     3     2     9   am
     4     3     4    1
     5     3    26    1
     6     3    27    1
     7     4     8    1
     8     4     5    1
     9     5     6    2
    10     5    28    1
    11     6     7    1
    12     7     8    2
    13     7    29    1
    14     9    10    1
    15     9    30    1
    16    10    11    1
    17    10    12    1
    18    10    23    1
    19    12    13    1
    20    12    31    1
    21    12    32    1
    22    13    14    1
    23    13    33    1
    24    14    22    1
    25    14    15    2
    26    15    16    1
    27    16    17    2
    28    16    34    1
    29    17    18    1
    30    17    35    1
    31    18    22    1
    32    18    19    1
    33    19    20    2
    34    20    21    1
    35    21    22    2
    36    23    25    1
    37    23    24    1
    38    23    36    1
    39    24    25    1
    40    24    37    1
    41    24    38    1
    42    25    39    1
    43    25    40    1
@<TRIPOS>SUBSTRUCTURE
     1 ZINC001109848453        1 TEMP              0 ****  ****    0 ROOT


##########                                Name:    ZINC001282645012
##########                DOCK_Rotatable_Bonds:                   9
##########                         Heavy_Atoms:                  27
##########                    Molecular_Weight:             372.511
##########                DOCK_Rotatable_Bonds:                   9
##########                       Formal_Charge:          -0.0200004
##########                     HBond_Acceptors:                   6
##########                        HBond_Donors:                   1
##########                         Heavy_Atoms:                  27
##########                          Grid_Score:          -35.909126
##########                     Grid_vdw_energy:          -35.003139
##########                      Grid_es_energy:           -0.905988
##########           Internal_energy_repulsive:           33.990494

@<TRIPOS>MOLECULE
ZINC001282645012
 59 61 1 0 0
SMALL
USER_CHARGES


@<TRIPOS>ATOM
      1 C1         -1.4946   -0.9902   45.0083 C.2     1  ZINC001282645012   -0.1900
      2 C2         -0.9309   -0.2966   45.9660 C.2     1  ZINC001282645012   -0.1300
      3 C3         -0.4870    1.1205   45.7091 C.3     1  ZINC001282645012   -0.0500
      4 C4          0.7565    1.1117   44.8177 C.3     1  ZINC001282645012   -0.1500
      5 C5         -1.6107    1.8879   45.0093 C.3     1  ZINC001282645012   -0.1400
      6 C6         -0.1614    1.7904   47.0191 C.2     1  ZINC001282645012    0.5500
      7 O7          0.9054    2.3482   47.1662 O.2     1  ZINC001282645012   -0.5300
      8 N8         -1.0556    1.7694   48.0273 N.am    1  ZINC001282645012   -0.6300
      9 C9         -0.9884    2.3478   49.4123 C.3     1  ZINC001282645012    0.1200
     10 H10        -0.0668    2.8720   49.6644 H       1  ZINC001282645012    0.1300
     11 C11        -1.3047    1.0903   50.2768 C.3     1  ZINC001282645012   -0.1300
     12 C12        -2.2843    0.2815   49.3911 C.3     1  ZINC001282645012   -0.1300
     13 C13        -2.4291    1.1662   48.1098 C.3     1  ZINC001282645012    0.1200
     14 H14        -2.7740    0.6465   47.2159 H       1  ZINC001282645012    0.1200
     15 C15        -3.2928    2.3848   48.5546 C.3     1  ZINC001282645012    0.1300
     16 H16        -3.6039    2.9710   47.6899 H       1  ZINC001282645012    0.1000
     17 N17        -4.4593    1.9386   49.3202 N.am    1  ZINC001282645012   -0.7100
     18 C18        -5.3034    2.8448   49.8519 C.2     1  ZINC001282645012    0.5100
     19 O19        -5.0964    4.0298   49.6978 O.2     1  ZINC001282645012   -0.5100
     20 C20        -6.5044    2.3857   50.6380 C.3     1  ZINC001282645012    0.1200
     21 H21        -6.9293    1.4990   50.1674 H       1  ZINC001282645012    0.1300
     22 C22        -6.0795    2.0497   52.0688 C.3     1  ZINC001282645012   -0.1100
     23 C23        -7.2426    1.3785   52.8020 C.3     1  ZINC001282645012   -0.1000
     24 C24        -7.4340   -0.0407   52.2635 C.3     1  ZINC001282645012   -0.1500
     25 C25        -6.9349    1.3185   54.2995 C.3     1  ZINC001282645012   -0.1500
     26 N26        -7.5078    3.4528   50.6643 N.pl3   1  ZINC001282645012   -0.4500
     27 C27        -7.6154    4.4436   51.6025 C.2     1  ZINC001282645012   -0.0600
     28 C28        -8.6677    5.2048   51.2465 C.2     1  ZINC001282645012   -0.0200
     29 N29        -9.1886    4.6926   50.1217 N.2     1  ZINC001282645012   -0.4900
     30 C30        -8.4959    3.6460   49.7643 C.2     1  ZINC001282645012    0.1900
     31 C31        -2.2834    3.2145   49.4371 C.3     1  ZINC001282645012   -0.1400
     32 H32        -1.6413   -0.5465   44.0346 H       1  ZINC001282645012    0.1000
     33 H33        -1.8086   -2.0072   45.1911 H       1  ZINC001282645012    0.1000
     34 H34        -0.7841   -0.7402   46.9397 H       1  ZINC001282645012    0.1100
     35 H35         0.5209    0.6273   43.8701 H       1  ZINC001282645012    0.0700
     36 H36         1.0775    2.1367   44.6318 H       1  ZINC001282645012    0.0700
     37 H37         1.5569    0.5651   45.3161 H       1  ZINC001282645012    0.0600
     38 H38        -2.4966    1.8941   45.6443 H       1  ZINC001282645012    0.0600
     39 H39        -1.2896    2.9128   44.8234 H       1  ZINC001282645012    0.0700
     40 H40        -1.8462    1.4034   44.0618 H       1  ZINC001282645012    0.0700
     41 H41        -0.3973    0.5173   50.4676 H       1  ZINC001282645012    0.0800
     42 H42        -1.7823    1.3782   51.2132 H       1  ZINC001282645012    0.0800
     43 H43        -1.8625   -0.6924   49.1427 H       1  ZINC001282645012    0.0700
     44 H44        -3.2475    0.1685   49.8884 H       1  ZINC001282645012    0.0800
     45 H45        -4.6242    0.9908   49.4444 H       1  ZINC001282645012    0.4000
     46 H46        -5.2258    1.3724   52.0447 H       1  ZINC001282645012    0.0900
     47 H47        -5.8018    2.9660   52.5900 H       1  ZINC001282645012    0.0800
     48 H48        -8.1541    1.9541   52.6411 H       1  ZINC001282645012    0.0700
     49 H49        -6.5224   -0.6164   52.4243 H       1  ZINC001282645012    0.0600
     50 H50        -8.2626   -0.5189   52.7857 H       1  ZINC001282645012    0.0600
     51 H51        -7.6531    0.0020   51.1966 H       1  ZINC001282645012    0.0500
     52 H52        -6.8832    2.3308   54.7006 H       1  ZINC001282645012    0.0600
     53 H53        -7.7227    0.7651   54.8105 H       1  ZINC001282645012    0.0600
     54 H54        -5.9796    0.8172   54.4544 H       1  ZINC001282645012    0.0600
     55 H55        -6.9788    4.5872   52.4631 H       1  ZINC001282645012    0.1700
     56 H56        -9.0290    6.0750   51.7742 H       1  ZINC001282645012    0.1700
     57 H57        -8.6854    3.0321   48.8962 H       1  ZINC001282645012    0.2000
     58 H58        -2.6469    3.2969   50.4614 H       1  ZINC001282645012    0.0900
     59 H59        -2.1189    4.2022   49.0064 H       1  ZINC001282645012    0.0900
@<TRIPOS>BOND
     1     1     2    2
     2     1    32    1
     3     1    33    1
     4     2     3    1
     5     2    34    1
     6     3     4    1
     7     3     5    1
     8     3     6    1
     9     4    35    1
    10     4    36    1
    11     4    37    1
    12     5    38    1
    13     5    39    1
    14     5    40    1
    15     6     7    2
    16     6     8   am
    17     8    13    1
    18     8     9    1
    19     9    10    1
    20     9    31    1
    21     9    11    1
    22    11    12    1
    23    11    41    1
    24    11    42    1
    25    12    13    1
    26    12    43    1
    27    12    44    1
    28    13    14    1
    29    13    15    1
    30    15    16    1
    31    15    17    1
    32    15    31    1
    33    17    18   am
    34    17    45    1
    35    18    19    2
    36    18    20    1
    37    20    21    1
    38    20    22    1
    39    20    26    1
    40    22    23    1
    41    22    46    1
    42    22    47    1
    43    23    24    1
    44    23    25    1
    45    23    48    1
    46    24    49    1
    47    24    50    1
    48    24    51    1
    49    25    52    1
    50    25    53    1
    51    25    54    1
    52    26    30    1
    53    26    27    1
    54    27    28    2
    55    27    55    1
    56    28    29    1
    57    28    56    1
    58    29    30    2
    59    30    57    1
    60    31    58    1
    61    31    59    1
@<TRIPOS>SUBSTRUCTURE
     1 ZINC001282645012        1 TEMP              0 ****  ****    0 ROOT


##########                                Name:    ZINC000484900616
##########                DOCK_Rotatable_Bonds:                  10
##########                         Heavy_Atoms:                  29
##########                    Molecular_Weight:             415.556
##########                DOCK_Rotatable_Bonds:                  10
##########                       Formal_Charge:        -1.49012e-08
##########                     HBond_Acceptors:                   7
##########                        HBond_Donors:                   1
##########                         Heavy_Atoms:                  29
##########                          Grid_Score:          -35.861935
##########                     Grid_vdw_energy:          -34.843170
##########                      Grid_es_energy:           -1.018763
##########           Internal_energy_repulsive:           13.002653

@<TRIPOS>MOLECULE
ZINC000484900616
 58 60 1 0 0
SMALL
USER_CHARGES


@<TRIPOS>ATOM
      1 C1        -15.6792   -2.6582   54.6465 C.3     1  ZINC000484900616   -0.1500
      2 C2        -14.8580   -2.4248   55.9162 C.3     1  ZINC000484900616    0.0600
      3 O3        -15.6846   -2.6837   57.0815 O.3     1  ZINC000484900616   -0.3400
      4 C4        -15.1127   -2.5059   58.2891 C.2     1  ZINC000484900616    0.5500
      5 O5        -15.8000   -2.2259   59.2518 O.2     1  ZINC000484900616   -0.5000
      6 C6        -13.6566   -2.6506   58.4421 C.2     1  ZINC000484900616    0.0200
      7 C7        -12.9906   -3.7888   58.1404 C.2     1  ZINC000484900616   -0.2400
      8 S8        -11.3266   -3.5533   58.4530 S.3     1  ZINC000484900616    0.2900
      9 C9        -11.6154   -1.9509   58.9679 C.2     1  ZINC000484900616    0.0300
     10 C10       -10.5500   -0.9980   59.4459 C.3     1  ZINC000484900616    0.1500
     11 H11       -10.9380    0.0202   59.4748 H       1  ZINC000484900616    0.0900
     12 C12       -10.0377   -1.4200   60.8455 C.3     1  ZINC000484900616   -0.1200
     13 C13        -8.6233   -0.7828   60.8667 C.3     1  ZINC000484900616   -0.1400
     14 C14        -8.1538   -0.9299   59.4040 C.3     1  ZINC000484900616    0.0500
     15 N15        -9.3624   -1.0716   58.5684 N.3     1  ZINC000484900616   -0.5100
     16 C16        -9.4071   -0.0361   57.5274 C.3     1  ZINC000484900616    0.0300
     17 C17        -9.4308   -0.6896   56.1696 C.2     1  ZINC000484900616    0.5200
     18 O18        -9.7022   -1.8673   56.0681 O.2     1  ZINC000484900616   -0.5100
     19 N19        -9.1503    0.0347   55.0682 N.am    1  ZINC000484900616   -0.7300
     20 C20        -9.1750   -0.6001   53.7481 C.3     1  ZINC000484900616    0.1900
     21 H21        -8.8308   -1.6308   53.8340 H       1  ZINC000484900616    0.1000
     22 C22       -10.6038   -0.5835   53.2010 C.3     1  ZINC000484900616   -0.1600
     23 C23        -8.2692    0.1554   52.8102 C.ar    1  ZINC000484900616   -0.1000
     24 C24        -7.4278   -0.5337   51.9570 C.ar    1  ZINC000484900616   -0.1100
     25 C25        -6.5969    0.1594   51.0967 C.ar    1  ZINC000484900616   -0.1100
     26 C26        -6.6077    1.5417   51.0893 C.ar    1  ZINC000484900616   -0.0800
     27 C27        -5.7016    2.2973   50.1517 C.3     1  ZINC000484900616   -0.0900
     28 C28        -4.2494    1.8879   50.4055 C.3     1  ZINC000484900616   -0.1500
     29 C29        -7.4502    2.2308   51.9415 C.ar    1  ZINC000484900616   -0.1100
     30 C30        -8.2839    1.5376   52.7991 C.ar    1  ZINC000484900616   -0.1000
     31 N31       -12.8675   -1.6685   58.8865 N.2     1  ZINC000484900616   -0.4300
     32 H32       -16.0268   -3.6911   54.6232 H       1  ZINC000484900616    0.0700
     33 H33       -16.5371   -1.9858   54.6399 H       1  ZINC000484900616    0.0700
     34 H34       -15.0586   -2.4639   53.7715 H       1  ZINC000484900616    0.0800
     35 H35       -14.0001   -3.0971   55.9226 H       1  ZINC000484900616    0.0700
     36 H36       -14.5103   -1.3920   55.9393 H       1  ZINC000484900616    0.0700
     37 H37       -13.4369   -4.6973   57.7637 H       1  ZINC000484900616    0.1900
     38 H38       -10.6655   -1.0031   61.6332 H       1  ZINC000484900616    0.0900
     39 H39        -9.9784   -2.5051   60.9288 H       1  ZINC000484900616    0.0800
     40 H40        -8.6783    0.2683   61.1499 H       1  ZINC000484900616    0.0700
     41 H41        -7.9639   -1.3305   61.5399 H       1  ZINC000484900616    0.0800
     42 H42        -7.5981   -0.0423   59.1018 H       1  ZINC000484900616    0.0600
     43 H43        -7.5261   -1.8153   59.3033 H       1  ZINC000484900616    0.0900
     44 H44       -10.3046    0.5690   57.6551 H       1  ZINC000484900616    0.1100
     45 H45        -8.5255    0.5996   57.6093 H       1  ZINC000484900616    0.0700
     46 H46        -8.9320    0.9763   55.1495 H       1  ZINC000484900616    0.4000
     47 H47       -10.6223   -1.0558   52.2188 H       1  ZINC000484900616    0.0700
     48 H48       -11.2590   -1.1301   53.8793 H       1  ZINC000484900616    0.0700
     49 H49       -10.9480    0.4471   53.1151 H       1  ZINC000484900616    0.0600
     50 H50        -7.4193   -1.6137   51.9628 H       1  ZINC000484900616    0.1200
     51 H51        -5.9389   -0.3791   50.4307 H       1  ZINC000484900616    0.1200
     52 H52        -5.9699    2.0649   49.1212 H       1  ZINC000484900616    0.0700
     53 H53        -5.8126    3.3680   50.3235 H       1  ZINC000484900616    0.0700
     54 H54        -3.9812    2.1204   51.4361 H       1  ZINC000484900616    0.0600
     55 H55        -4.1384    0.8174   50.2338 H       1  ZINC000484900616    0.0600
     56 H56        -3.5941    2.4346   49.7275 H       1  ZINC000484900616    0.0600
     57 H57        -7.4589    3.3108   51.9354 H       1  ZINC000484900616    0.1200
     58 H58        -8.9421    2.0761   53.4649 H       1  ZINC000484900616    0.1200
@<TRIPOS>BOND
     1     1     2    1
     2     1    32    1
     3     1    33    1
     4     1    34    1
     5     2     3    1
     6     2    35    1
     7     2    36    1
     8     3     4    1
     9     4     5    2
    10     4     6    1
    11     6    31    1
    12     6     7    2
    13     7     8    1
    14     7    37    1
    15     8     9    1
    16     9    10    1
    17     9    31    2
    18    10    11    1
    19    10    15    1
    20    10    12    1
    21    12    13    1
    22    12    38    1
    23    12    39    1
    24    13    14    1
    25    13    40    1
    26    13    41    1
    27    14    15    1
    28    14    42    1
    29    14    43    1
    30    15    16    1
    31    16    17    1
    32    16    44    1
    33    16    45    1
    34    17    18    2
    35    17    19   am
    36    19    20    1
    37    19    46    1
    38    20    21    1
    39    20    22    1
    40    20    23    1
    41    22    47    1
    42    22    48    1
    43    22    49    1
    44    23    30   ar
    45    23    24   ar
    46    24    25   ar
    47    24    50    1
    48    25    26   ar
    49    25    51    1
    50    26    27    1
    51    26    29   ar
    52    27    28    1
    53    27    52    1
    54    27    53    1
    55    28    54    1
    56    28    55    1
    57    28    56    1
    58    29    30   ar
    59    29    57    1
    60    30    58    1
@<TRIPOS>SUBSTRUCTURE
     1 ZINC000484900616        1 TEMP              0 ****  ****    0 ROOT


##########                                Name:    ZINC000512699033
##########                DOCK_Rotatable_Bonds:                   9
##########                         Heavy_Atoms:                  30
##########                    Molecular_Weight:              405.54
##########                DOCK_Rotatable_Bonds:                   9
##########                       Formal_Charge:           0.0199988
##########                     HBond_Acceptors:                   5
##########                        HBond_Donors:                   2
##########                         Heavy_Atoms:                  30
##########                          Grid_Score:          -35.773056
##########                     Grid_vdw_energy:          -35.326527
##########                      Grid_es_energy:           -0.446529
##########           Internal_energy_repulsive:           12.827043

@<TRIPOS>MOLECULE
ZINC000512699033
 61 64 1 0 0
SMALL
USER_CHARGES


@<TRIPOS>ATOM
      1 O1        -10.6205   -3.7756   56.6503 O.2     1  ZINC000512699033   -0.5100
      2 C2        -10.8986   -2.6673   56.2438 C.2     1  ZINC000512699033    0.5200
      3 C3        -10.0687   -2.0330   55.1576 C.3     1  ZINC000512699033   -0.1500
      4 C4        -10.0885   -0.5120   55.3230 C.3     1  ZINC000512699033    0.1300
      5 N5         -9.0577    0.0854   54.4705 N.am    1  ZINC000512699033   -0.7300
      6 C6         -9.3133    0.3206   53.1683 C.2     1  ZINC000512699033    0.5200
      7 O7        -10.3970    0.0389   52.7025 O.2     1  ZINC000512699033   -0.5300
      8 C8         -8.2523    0.9335   52.2909 C.3     1  ZINC000512699033   -0.1100
      9 C9         -7.4717    1.9792   53.0895 C.3     1  ZINC000512699033   -0.1100
     10 C10        -6.3944    2.6014   52.1987 C.3     1  ZINC000512699033   -0.1200
     11 C11        -5.4377    1.5091   51.7167 C.3     1  ZINC000512699033   -0.1200
     12 C12        -6.2185    0.4634   50.9180 C.3     1  ZINC000512699033   -0.1200
     13 C13        -7.2956   -0.1589   51.8088 C.3     1  ZINC000512699033   -0.1000
     14 N14       -11.9532   -2.0052   56.7596 N.am    1  ZINC000512699033   -0.6600
     15 C15       -12.7237   -2.5943   57.7683 C.ar    1  ZINC000512699033    0.1700
     16 C16       -13.5978   -3.6287   57.4617 C.ar    1  ZINC000512699033   -0.1400
     17 C17       -14.3566   -4.2085   58.4597 C.ar    1  ZINC000512699033   -0.1000
     18 C18       -14.2469   -3.7594   59.7628 C.ar    1  ZINC000512699033   -0.1400
     19 C19       -13.3773   -2.7293   60.0714 C.ar    1  ZINC000512699033   -0.0900
     20 C20       -12.6117   -2.1494   59.0792 C.ar    1  ZINC000512699033   -0.1200
     21 C21       -11.6643   -1.0269   59.4164 C.3     1  ZINC000512699033    0.0900
     22 N22       -10.5440   -1.5529   60.2079 N.3     1  ZINC000512699033   -0.4700
     23 C23        -9.2787   -1.4868   59.4447 C.3     1  ZINC000512699033    0.0500
     24 C24        -8.2239   -1.2815   60.5561 C.3     1  ZINC000512699033   -0.0900
     25 C25        -9.0249   -0.6268   61.6638 C.ar    1  ZINC000512699033   -0.1400
     26 C26        -8.6326    0.0616   62.7922 C.ar    1  ZINC000512699033   -0.0800
     27 C27        -9.5829    0.5737   63.6574 C.ar    1  ZINC000512699033   -0.1400
     28 C28       -10.9273    0.3943   63.3885 C.ar    1  ZINC000512699033   -0.0900
     29 C29       -11.3249   -0.2957   62.2621 C.ar    1  ZINC000512699033   -0.1400
     30 C30       -10.3737   -0.8171   61.3872 C.ar    1  ZINC000512699033    0.0900
     31 H31        -9.0422   -2.3927   55.2276 H       1  ZINC000512699033    0.1100
     32 H32       -10.4810   -2.2979   54.1839 H       1  ZINC000512699033    0.1000
     33 H33       -11.0667   -0.1278   55.0339 H       1  ZINC000512699033    0.0800
     34 H34        -9.8915   -0.2573   56.3643 H       1  ZINC000512699033    0.0800
     35 H35        -8.1914    0.3118   54.8434 H       1  ZINC000512699033    0.4000
     36 H36        -8.7228    1.4099   51.4308 H       1  ZINC000512699033    0.1000
     37 H37        -8.1532    2.7574   53.4329 H       1  ZINC000512699033    0.0700
     38 H38        -7.0012    1.5028   53.9495 H       1  ZINC000512699033    0.0700
     39 H39        -6.8649    3.0779   51.3386 H       1  ZINC000512699033    0.0600
     40 H40        -5.8382    3.3464   52.7676 H       1  ZINC000512699033    0.0700
     41 H41        -4.6703    1.9524   51.0820 H       1  ZINC000512699033    0.0600
     42 H42        -4.9673    1.0326   52.5768 H       1  ZINC000512699033    0.0600
     43 H43        -6.6889    0.9398   50.0579 H       1  ZINC000512699033    0.0600
     44 H44        -5.5368   -0.3148   50.5746 H       1  ZINC000512699033    0.0700
     45 H45        -6.8252   -0.6353   52.6690 H       1  ZINC000512699033    0.0700
     46 H46        -7.8518   -0.9039   51.2399 H       1  ZINC000512699033    0.0700
     47 H47       -12.1780   -1.1206   56.4316 H       1  ZINC000512699033    0.4200
     48 H48       -13.6843   -3.9795   56.4438 H       1  ZINC000512699033    0.1500
     49 H49       -15.0366   -5.0130   58.2218 H       1  ZINC000512699033    0.1300
     50 H50       -14.8419   -4.2138   60.5412 H       1  ZINC000512699033    0.1200
     51 H51       -13.2938   -2.3807   61.0902 H       1  ZINC000512699033    0.1200
     52 H52       -11.2829   -0.5846   58.4961 H       1  ZINC000512699033    0.0600
     53 H53       -12.1917   -0.2673   59.9934 H       1  ZINC000512699033    0.0900
     54 H54        -9.1006   -2.4197   58.9100 H       1  ZINC000512699033    0.1000
     55 H55        -9.2856   -0.6410   58.7572 H       1  ZINC000512699033    0.0600
     56 H56        -7.8195   -2.2386   60.8860 H       1  ZINC000512699033    0.0900
     57 H57        -7.4265   -0.6215   60.2143 H       1  ZINC000512699033    0.0800
     58 H58        -7.5822    0.2010   63.0011 H       1  ZINC000512699033    0.1200
     59 H59        -9.2753    1.1121   64.5416 H       1  ZINC000512699033    0.1300
     60 H60       -11.6689    0.7955   64.0633 H       1  ZINC000512699033    0.1300
     61 H61       -12.3767   -0.4326   62.0579 H       1  ZINC000512699033    0.1200
@<TRIPOS>BOND
     1     1     2    2
     2     2     3    1
     3     2    14   am
     4     3     4    1
     5     3    31    1
     6     3    32    1
     7     4     5    1
     8     4    33    1
     9     4    34    1
    10     5     6   am
    11     5    35    1
    12     6     7    2
    13     6     8    1
    14     8    13    1
    15     8     9    1
    16     8    36    1
    17     9    10    1
    18     9    37    1
    19     9    38    1
    20    10    11    1
    21    10    39    1
    22    10    40    1
    23    11    12    1
    24    11    41    1
    25    11    42    1
    26    12    13    1
    27    12    43    1
    28    12    44    1
    29    13    45    1
    30    13    46    1
    31    14    15    1
    32    14    47    1
    33    15    20   ar
    34    15    16   ar
    35    16    17   ar
    36    16    48    1
    37    17    18   ar
    38    17    49    1
    39    18    19   ar
    40    18    50    1
    41    19    20   ar
    42    19    51    1
    43    20    21    1
    44    21    22    1
    45    21    52    1
    46    21    53    1
    47    22    30    1
    48    22    23    1
    49    23    24    1
    50    23    54    1
    51    23    55    1
    52    24    25    1
    53    24    56    1
    54    24    57    1
    55    25    30   ar
    56    25    26   ar
    57    26    27   ar
    58    26    58    1
    59    27    28   ar
    60    27    59    1
    61    28    29   ar
    62    28    60    1
    63    29    30   ar
    64    29    61    1
@<TRIPOS>SUBSTRUCTURE
     1 ZINC000512699033        1 TEMP              0 ****  ****    0 ROOT


##########                                Name:    ZINC000770814339
##########                DOCK_Rotatable_Bonds:                  13
##########                         Heavy_Atoms:                  28
##########                    Molecular_Weight:             409.423
##########                DOCK_Rotatable_Bonds:                  13
##########                       Formal_Charge:          -0.0100008
##########                     HBond_Acceptors:                  12
##########                        HBond_Donors:                   4
##########                         Heavy_Atoms:                  28
##########                          Grid_Score:          -35.692490
##########                     Grid_vdw_energy:          -31.771442
##########                      Grid_es_energy:           -3.921046
##########           Internal_energy_repulsive:            8.287480

@<TRIPOS>MOLECULE
ZINC000770814339
 47 48 1 0 0
SMALL
USER_CHARGES


@<TRIPOS>ATOM
      1 C1         -1.5405    0.0104   43.8587 C.3     1  ZINC000770814339   -0.1500
      2 C2         -0.6783    0.9850   44.6636 C.3     1  ZINC000770814339    0.0600
      3 O3          0.5782    0.3459   45.0116 O.3     1  ZINC000770814339   -0.3500
      4 C4          1.4459    1.0646   45.7410 C.2     1  ZINC000770814339    0.4700
      5 O5          2.5537    0.6342   45.9589 O.2     1  ZINC000770814339   -0.4800
      6 C6          1.0385    2.4083   46.2883 C.3     1  ZINC000770814339    0.0700
      7 O7          0.2200    2.2232   47.4450 O.3     1  ZINC000770814339   -0.1800
      8 N8          0.9269    1.7659   48.5835 N.2     1  ZINC000770814339   -0.2800
      9 C9          0.5253    2.0999   49.7773 C.2     1  ZINC000770814339    0.1800
     10 C10        -0.6724    2.9569   49.9435 C.2     1  ZINC000770814339    0.5900
     11 O11        -0.5636    4.1666   49.9076 O.2     1  ZINC000770814339   -0.5100
     12 N12        -1.8822    2.3945   50.1345 N.am    1  ZINC000770814339   -0.7000
     13 C13        -3.0663    3.2416   50.2971 C.3     1  ZINC000770814339    0.1500
     14 C14        -4.2003    2.4187   50.8520 C.ar    1  ZINC000770814339   -0.0600
     15 C15        -4.7294    1.3804   50.1084 C.ar    1  ZINC000770814339   -0.1200
     16 C16        -5.7696    0.6255   50.6174 C.ar    1  ZINC000770814339   -0.0200
     17 C17        -6.2804    0.9087   51.8703 C.ar    1  ZINC000770814339   -0.6700
     18 S18        -7.6067   -0.0531   52.5190 S.o2    1  ZINC000770814339    2.7000
     19 N19        -8.9904    0.8398   52.3453 N.am    1  ZINC000770814339   -1.2500
     20 O20        -7.7442   -1.1773   51.6607 O.2     1  ZINC000770814339   -0.9600
     21 O21        -7.3745   -0.1658   53.9163 O.2     1  ZINC000770814339   -0.9600
     22 C22        -5.7505    1.9461   52.6146 C.ar    1  ZINC000770814339   -0.0200
     23 C23        -4.7077    2.6985   52.1070 C.ar    1  ZINC000770814339   -0.1200
     24 C24         1.2635    1.6248   50.9645 C.2     1  ZINC000770814339    0.0600
     25 C25         1.5794    2.3658   52.0829 C.2     1  ZINC000770814339   -0.2000
     26 C26         2.2764    1.5345   52.9584 C.2     1  ZINC000770814339    0.0400
     27 N27         2.3857    0.3489   52.4141 N.2     1  ZINC000770814339   -0.2600
     28 N28         1.7562    0.3680   51.1633 N.pl3   1  ZINC000770814339   -0.4400
     29 H29        -2.4837    0.4902   43.5975 H       1  ZINC000770814339    0.0800
     30 H30        -1.0133   -0.2743   42.9482 H       1  ZINC000770814339    0.0700
     31 H31        -1.7386   -0.8789   44.4570 H       1  ZINC000770814339    0.0700
     32 H32        -0.4801    1.8743   44.0653 H       1  ZINC000770814339    0.0700
     33 H33        -1.2056    1.2697   45.5742 H       1  ZINC000770814339    0.0700
     34 H34         1.9290    2.9750   46.5602 H       1  ZINC000770814339    0.1100
     35 H35         0.4776    2.9546   45.5301 H       1  ZINC000770814339    0.1100
     36 H36        -1.9688    1.4288   50.1644 H       1  ZINC000770814339    0.4100
     37 H37        -2.8385    4.0564   50.9842 H       1  ZINC000770814339    0.0900
     38 H38        -3.3549    3.6521   49.3295 H       1  ZINC000770814339    0.0900
     39 H39        -4.3303    1.1592   49.1294 H       1  ZINC000770814339    0.1400
     40 H40        -6.1833   -0.1851   50.0361 H       1  ZINC000770814339    0.1500
     41 H41        -9.8401    0.4810   52.6454 H       1  ZINC000770814339    0.4200
     42 H42        -8.9512    1.7218   51.9434 H       1  ZINC000770814339    0.4200
     43 H43        -6.1493    2.1671   53.5936 H       1  ZINC000770814339    0.1500
     44 H44        -4.2936    3.5089   52.6885 H       1  ZINC000770814339    0.1400
     45 H45         1.3318    3.4035   52.2508 H       1  ZINC000770814339    0.1700
     46 H46         2.6627    1.8212   53.9254 H       1  ZINC000770814339    0.1900
     47 H47         1.6878   -0.3772   50.5461 H       1  ZINC000770814339    0.4500
@<TRIPOS>BOND
     1     1     2    1
     2     1    29    1
     3     1    30    1
     4     1    31    1
     5     2     3    1
     6     2    32    1
     7     2    33    1
     8     3     4    1
     9     4     5    2
    10     4     6    1
    11     6     7    1
    12     6    34    1
    13     6    35    1
    14     7     8    1
    15     8     9    2
    16     9    10    1
    17     9    24    1
    18    10    11    2
    19    10    12   am
    20    12    13    1
    21    12    36    1
    22    13    14    1
    23    13    37    1
    24    13    38    1
    25    14    23   ar
    26    14    15   ar
    27    15    16   ar
    28    15    39    1
    29    16    17   ar
    30    16    40    1
    31    17    18    1
    32    17    22   ar
    33    18    19   am
    34    18    20    2
    35    18    21    2
    36    19    41    1
    37    19    42    1
    38    22    23   ar
    39    22    43    1
    40    23    44    1
    41    24    28    1
    42    24    25    2
    43    25    26    1
    44    25    45    1
    45    26    27    2
    46    26    46    1
    47    27    28    1
    48    28    47    1
@<TRIPOS>SUBSTRUCTURE
     1 ZINC000770814339        1 TEMP              0 ****  ****    0 ROOT


##########                                Name:    ZINC000058043838
##########                DOCK_Rotatable_Bonds:                   8
##########                         Heavy_Atoms:                  29
##########                    Molecular_Weight:             412.469
##########                DOCK_Rotatable_Bonds:                   8
##########                       Formal_Charge:           0.0200001
##########                     HBond_Acceptors:                   9
##########                        HBond_Donors:                   0
##########                         Heavy_Atoms:                  29
##########                          Grid_Score:          -35.690098
##########                     Grid_vdw_energy:          -33.888493
##########                      Grid_es_energy:           -1.801604
##########           Internal_energy_repulsive:           14.700423

@<TRIPOS>MOLECULE
ZINC000058043838
 49 51 1 0 0
SMALL
USER_CHARGES


@<TRIPOS>ATOM
      1 C1          0.4033    3.4026   53.8956 C.3     1  ZINC000058043838    0.0300
      2 O2         -0.0338    3.3531   52.5360 O.3     1  ZINC000058043838   -0.3800
      3 C3         -1.2724    4.0250   52.2987 C.3     1  ZINC000058043838    0.0300
      4 C4         -1.5465    4.0732   50.7943 C.3     1  ZINC000058043838    0.1000
      5 N5         -2.0588    2.7748   50.3494 N.am    1  ZINC000058043838   -0.5200
      6 C6         -1.2018    1.8074   49.9670 C.2     1  ZINC000058043838    0.5100
      7 O7         -0.0066    2.0123   49.9898 O.2     1  ZINC000058043838   -0.4500
      8 C8         -1.7286    0.4711   49.5109 C.3     1  ZINC000058043838   -0.0900
      9 C9         -1.6491    0.3861   48.0085 C.ar    1  ZINC000058043838   -0.1400
     10 C10        -1.7147    1.5354   47.2360 C.ar    1  ZINC000058043838   -0.0500
     11 C11        -1.6372    1.4092   45.8572 C.ar    1  ZINC000058043838   -0.1700
     12 C12        -1.4979    0.1510   45.3029 C.ar    1  ZINC000058043838    0.1300
     13 C13        -1.4121    0.0021   43.8058 C.3     1  ZINC000058043838   -0.1100
     14 N14        -1.4389   -0.9209   46.0690 N.ar    1  ZINC000058043838   -0.4800
     15 C15        -1.5043   -0.8382   47.3834 C.ar    1  ZINC000058043838    0.1200
     16 C16        -3.4281    2.5406   50.3215 C.2     1  ZINC000058043838    0.3100
     17 N17        -4.1041    1.9372   51.2488 N.2     1  ZINC000058043838   -0.4700
     18 C18        -5.4083    1.8032   51.0525 C.2     1  ZINC000058043838    0.1100
     19 C19        -6.2934    1.1332   52.0362 C.ar    1  ZINC000058043838    0.0400
     20 C20        -7.2296    0.1934   51.6084 C.ar    1  ZINC000058043838   -0.0800
     21 C21        -8.0502   -0.4272   52.5283 C.ar    1  ZINC000058043838   -0.0500
     22 C22        -7.9448   -0.1180   53.8726 C.ar    1  ZINC000058043838   -0.0400
     23 N23        -8.8278   -0.7871   54.8545 N.pl3   1  ZINC000058043838    0.0300
     24 O24        -9.6451   -1.6080   54.4783 O.2     1  ZINC000058043838   -0.1600
     25 O25        -8.7369   -0.5166   56.0386 O.2     1  ZINC000058043838   -0.1600
     26 C26        -7.0171    0.8136   54.3028 C.ar    1  ZINC000058043838   -0.0500
     27 C27        -6.1880    1.4369   53.3924 C.ar    1  ZINC000058043838   -0.1100
     28 C28        -5.8736    2.3169   49.8997 C.2     1  ZINC000058043838   -0.2600
     29 S29        -4.5172    3.0239   49.0246 S.3     1  ZINC000058043838    0.1500
     30 H30         0.5382    4.4416   54.1964 H       1  ZINC000058043838    0.0500
     31 H31        -0.3447    2.9336   54.5350 H       1  ZINC000058043838    0.0400
     32 H32         1.3495    2.8704   53.9928 H       1  ZINC000058043838    0.0900
     33 H33        -2.0787    3.4876   52.7978 H       1  ZINC000058043838    0.0600
     34 H34        -1.2157    5.0406   52.6904 H       1  ZINC000058043838    0.0800
     35 H35        -2.2852    4.8466   50.5841 H       1  ZINC000058043838    0.1200
     36 H36        -0.6217    4.3000   50.2636 H       1  ZINC000058043838    0.1000
     37 H37        -1.1294   -0.3254   49.9521 H       1  ZINC000058043838    0.1100
     38 H38        -2.7662    0.3627   49.8267 H       1  ZINC000058043838    0.1100
     39 H39        -1.8240    2.5058   47.6970 H       1  ZINC000058043838    0.1300
     40 H40        -1.6852    2.2832   45.2245 H       1  ZINC000058043838    0.1400
     41 H41        -0.3689    0.0574   43.4944 H       1  ZINC000058043838    0.0800
     42 H42        -1.8282   -0.9615   43.5121 H       1  ZINC000058043838    0.0800
     43 H43        -1.9769    0.8026   43.3280 H       1  ZINC000058043838    0.0800
     44 H44        -1.4526   -1.7383   47.9780 H       1  ZINC000058043838    0.1500
     45 H45        -7.3130   -0.0485   50.5592 H       1  ZINC000058043838    0.1600
     46 H46        -8.7762   -1.1553   52.1981 H       1  ZINC000058043838    0.1600
     47 H47        -6.9392    1.0511   55.3535 H       1  ZINC000058043838    0.1600
     48 H48        -5.4638    2.1638   53.7295 H       1  ZINC000058043838    0.1500
     49 H49        -6.9016    2.3020   49.5692 H       1  ZINC000058043838    0.1800
@<TRIPOS>BOND
     1     1     2    1
     2     1    30    1
     3     1    31    1
     4     1    32    1
     5     2     3    1
     6     3     4    1
     7     3    33    1
     8     3    34    1
     9     4     5    1
    10     4    35    1
    11     4    36    1
    12     5     6   am
    13     5    16    1
    14     6     7    2
    15     6     8    1
    16     8     9    1
    17     8    37    1
    18     8    38    1
    19     9    15   ar
    20     9    10   ar
    21    10    11   ar
    22    10    39    1
    23    11    12   ar
    24    11    40    1
    25    12    13    1
    26    12    14   ar
    27    13    41    1
    28    13    42    1
    29    13    43    1
    30    14    15   ar
    31    15    44    1
    32    16    29    1
    33    16    17    2
    34    17    18    1
    35    18    19    1
    36    18    28    2
    37    19    27   ar
    38    19    20   ar
    39    20    21   ar
    40    20    45    1
    41    21    22   ar
    42    21    46    1
    43    22    23    1
    44    22    26   ar
    45    23    24    2
    46    23    25    2
    47    26    27   ar
    48    26    47    1
    49    27    48    1
    50    28    29    1
    51    28    49    1
@<TRIPOS>SUBSTRUCTURE
     1 ZINC000058043838        1 TEMP              0 ****  ****    0 ROOT


##########                                Name:    ZINC000892249927
##########                DOCK_Rotatable_Bonds:                   8
##########                         Heavy_Atoms:                  27
##########                    Molecular_Weight:             364.487
##########                DOCK_Rotatable_Bonds:                   8
##########                       Formal_Charge:          -0.0300015
##########                     HBond_Acceptors:                   4
##########                        HBond_Donors:                   1
##########                         Heavy_Atoms:                  27
##########                          Grid_Score:          -35.671482
##########                     Grid_vdw_energy:          -35.216614
##########                      Grid_es_energy:           -0.454870
##########           Internal_energy_repulsive:           14.413967

@<TRIPOS>MOLECULE
ZINC000892249927
 55 58 1 0 0
SMALL
USER_CHARGES


@<TRIPOS>ATOM
      1 O1         -2.1137    1.0515   50.0681 O.2     1  ZINC000892249927   -0.5300
      2 C2         -2.5414    1.6390   49.0971 C.2     1  ZINC000892249927    0.5100
      3 C3         -3.9232    2.2397   49.1281 C.3     1  ZINC000892249927   -0.1400
      4 C4         -4.7514    1.5577   50.2189 C.3     1  ZINC000892249927   -0.1000
      5 C5         -6.2174    1.9734   50.0810 C.3     1  ZINC000892249927   -0.0800
      6 C6         -7.0346    1.2951   51.1502 C.ar    1  ZINC000892249927   -0.0900
      7 C7         -7.9241    2.0303   51.9110 C.ar    1  ZINC000892249927   -0.1100
      8 C8         -8.6737    1.4081   52.8918 C.ar    1  ZINC000892249927   -0.1100
      9 C9         -8.5341    0.0505   53.1114 C.ar    1  ZINC000892249927   -0.0500
     10 C10        -9.3509   -0.6278   54.1809 C.3     1  ZINC000892249927   -0.1200
     11 C11        -9.7446    0.2042   55.4031 C.3     1  ZINC000892249927   -0.1800
     12 C12       -10.7997   -0.1699   54.3601 C.3     1  ZINC000892249927   -0.1700
     13 C13        -7.6456   -0.6851   52.3496 C.ar    1  ZINC000892249927   -0.1200
     14 C14        -6.8988   -0.0635   51.3662 C.ar    1  ZINC000892249927   -0.1100
     15 N15        -1.7790    1.7594   47.9922 N.am    1  ZINC000892249927   -0.7300
     16 C16        -0.4358    1.1754   47.9621 C.3     1  ZINC000892249927    0.1400
     17 H17        -0.2945    0.5403   48.8367 H       1  ZINC000892249927    0.1000
     18 C18         0.6099    2.2946   47.9672 C.3     1  ZINC000892249927   -0.1700
     19 C19         0.4527    3.1350   46.6972 C.3     1  ZINC000892249927    0.0600
     20 O20         0.5888    2.2931   45.5505 O.3     1  ZINC000892249927   -0.3700
     21 C21        -0.3917    1.2568   45.4678 C.3     1  ZINC000892249927    0.1400
     22 H22        -1.3874    1.6995   45.4447 H       1  ZINC000892249927    0.0700
     23 C23        -0.1695    0.4537   44.2122 C.ar    1  ZINC000892249927   -0.1400
     24 C24         1.0724    0.4431   43.5964 C.ar    1  ZINC000892249927   -0.0700
     25 C25         1.2310   -0.3106   42.4432 C.ar    1  ZINC000892249927   -0.1700
     26 C26         0.1534   -1.0210   41.9496 C.ar    1  ZINC000892249927    0.1000
     27 N27        -1.0142   -0.9876   42.5621 N.ar    1  ZINC000892249927   -0.4900
     28 C28        -1.1998   -0.2864   43.6632 C.ar    1  ZINC000892249927    0.1300
     29 C29        -0.2691    0.3391   46.6895 C.3     1  ZINC000892249927   -0.1500
     30 H30        -3.8509    3.3065   49.3403 H       1  ZINC000892249927    0.0900
     31 H31        -4.4049    2.0934   48.1614 H       1  ZINC000892249927    0.0900
     32 H32        -4.6690    0.4759   50.1147 H       1  ZINC000892249927    0.0700
     33 H33        -4.3793    1.8577   51.1986 H       1  ZINC000892249927    0.0700
     34 H34        -6.3005    3.0545   50.1913 H       1  ZINC000892249927    0.0700
     35 H35        -6.5877    1.6787   49.0991 H       1  ZINC000892249927    0.0700
     36 H36        -8.0332    3.0910   51.7395 H       1  ZINC000892249927    0.1200
     37 H37        -9.3682    1.9827   53.4868 H       1  ZINC000892249927    0.1200
     38 H38        -9.1335   -1.6840   54.3395 H       1  ZINC000892249927    0.1100
     39 H39        -9.7863   -0.3047   56.3661 H       1  ZINC000892249927    0.1000
     40 H40        -9.4129    1.2421   55.4336 H       1  ZINC000892249927    0.1000
     41 H41       -11.1621    0.6218   53.7045 H       1  ZINC000892249927    0.1000
     42 H42       -11.5355   -0.9249   54.6371 H       1  ZINC000892249927    0.1000
     43 H43        -7.5367   -1.7459   52.5209 H       1  ZINC000892249927    0.1200
     44 H44        -6.2046   -0.6383   50.7711 H       1  ZINC000892249927    0.1200
     45 H45        -2.1197    2.2327   47.2171 H       1  ZINC000892249927    0.4000
     46 H46         0.4625    2.9268   48.8428 H       1  ZINC000892249927    0.0800
     47 H47         1.6090    1.8596   47.9947 H       1  ZINC000892249927    0.0800
     48 H48        -0.5320    3.6023   46.6901 H       1  ZINC000892249927    0.0500
     49 H49         1.2218    3.9070   46.6746 H       1  ZINC000892249927    0.1000
     50 H50         1.8969    1.0087   44.0048 H       1  ZINC000892249927    0.1300
     51 H51         2.1845   -0.3416   41.9370 H       1  ZINC000892249927    0.1400
     52 H52         0.2685   -1.6101   41.0518 H       1  ZINC000892249927    0.1600
     53 H53        -2.1705   -0.2833   44.1367 H       1  ZINC000892249927    0.1600
     54 H54         0.7120   -0.1358   46.6915 H       1  ZINC000892249927    0.0900
     55 H55        -1.0448   -0.4256   46.6499 H       1  ZINC000892249927    0.0800
@<TRIPOS>BOND
     1     1     2    2
     2     2     3    1
     3     2    15   am
     4     3     4    1
     5     3    30    1
     6     3    31    1
     7     4     5    1
     8     4    32    1
     9     4    33    1
    10     5     6    1
    11     5    34    1
    12     5    35    1
    13     6    14   ar
    14     6     7   ar
    15     7     8   ar
    16     7    36    1
    17     8     9   ar
    18     8    37    1
    19     9    10    1
    20     9    13   ar
    21    10    12    1
    22    10    11    1
    23    10    38    1
    24    11    12    1
    25    11    39    1
    26    11    40    1
    27    12    41    1
    28    12    42    1
    29    13    14   ar
    30    13    43    1
    31    14    44    1
    32    15    16    1
    33    15    45    1
    34    16    17    1
    35    16    29    1
    36    16    18    1
    37    18    19    1
    38    18    46    1
    39    18    47    1
    40    19    20    1
    41    19    48    1
    42    19    49    1
    43    20    21    1
    44    21    22    1
    45    21    23    1
    46    21    29    1
    47    23    28   ar
    48    23    24   ar
    49    24    25   ar
    50    24    50    1
    51    25    26   ar
    52    25    51    1
    53    26    27   ar
    54    26    52    1
    55    27    28   ar
    56    28    53    1
    57    29    54    1
    58    29    55    1
@<TRIPOS>SUBSTRUCTURE
     1 ZINC000892249927        1 TEMP              0 ****  ****    0 ROOT


##########                                Name:    ZINC000265786263
##########                DOCK_Rotatable_Bonds:                   7
##########                         Heavy_Atoms:                  28
##########                    Molecular_Weight:             386.451
##########                DOCK_Rotatable_Bonds:                   7
##########                       Formal_Charge:           0.0499992
##########                     HBond_Acceptors:                   8
##########                        HBond_Donors:                   2
##########                         Heavy_Atoms:                  28
##########                          Grid_Score:          -35.560108
##########                     Grid_vdw_energy:          -34.595318
##########                      Grid_es_energy:           -0.964789
##########           Internal_energy_repulsive:           24.517309

@<TRIPOS>MOLECULE
ZINC000265786263
 54 57 1 0 0
SMALL
USER_CHARGES


@<TRIPOS>ATOM
      1 C1         -8.5274    0.1488   54.4274 C.3     1  ZINC000265786263   -0.1500
      2 C2         -8.9632    0.4412   52.9902 C.3     1  ZINC000265786263    0.1600
      3 C3        -10.2469   -0.3201   52.6533 C.3     1  ZINC000265786263   -0.1600
      4 C4        -11.5563    0.2069   53.2436 C.3     1  ZINC000265786263   -0.1600
      5 C5        -11.2662    0.3783   51.7512 C.3     1  ZINC000265786263   -0.1600
      6 N6         -9.1473    1.8888   52.7889 N.am    1  ZINC000265786263   -0.7100
      7 C7         -8.2686    2.2602   51.8403 C.2     1  ZINC000265786263    0.7100
      8 O8         -8.1560    3.3996   51.4324 O.2     1  ZINC000265786263   -0.5400
      9 N9         -7.5324    1.2351   51.3961 N.am    1  ZINC000265786263   -0.5600
     10 C10        -6.4981    1.3506   50.3650 C.3     1  ZINC000265786263    0.1000
     11 C11        -5.2067    1.8018   50.9974 C.2     1  ZINC000265786263    0.5100
     12 O12        -4.9849    1.5573   52.1644 O.2     1  ZINC000265786263   -0.5300
     13 N13        -4.2981    2.4770   50.2659 N.am    1  ZINC000265786263   -0.6100
     14 C14        -3.0280    2.9196   50.8611 C.3     1  ZINC000265786263    0.1100
     15 C15        -1.8797    2.4557   49.9587 C.3     1  ZINC000265786263    0.0400
     16 N16        -2.1193    2.9238   48.5871 N.3     1  ZINC000265786263   -0.5300
     17 C17        -0.9606    2.6490   47.7270 C.3     1  ZINC000265786263    0.0900
     18 C18        -1.2053    1.3854   46.9430 C.ar    1  ZINC000265786263   -0.0600
     19 C19        -1.1458    0.1577   47.5756 C.ar    1  ZINC000265786263   -0.1300
     20 C20        -1.3698   -1.0036   46.8590 C.ar    1  ZINC000265786263   -0.1000
     21 C21        -1.6537   -0.9394   45.5088 C.ar    1  ZINC000265786263   -0.1400
     22 C22        -1.7140    0.2917   44.8716 C.ar    1  ZINC000265786263    0.1100
     23 O23        -1.9935    0.3575   43.5432 O.3     1  ZINC000265786263   -0.5000
     24 C24        -1.4944    1.4554   45.5938 C.ar    1  ZINC000265786263   -0.1200
     25 C25        -3.3420    2.3319   48.0280 C.3     1  ZINC000265786263    0.0400
     26 C26        -4.5476    2.7853   48.8496 C.3     1  ZINC000265786263    0.1200
     27 C27        -7.8593    0.0834   52.0149 C.2     1  ZINC000265786263    0.5400
     28 O28        -7.3715   -1.0111   51.8305 O.2     1  ZINC000265786263   -0.4500
     29 H29        -7.6341    0.7280   54.6612 H       1  ZINC000265786263    0.0700
     30 H30        -9.3286    0.4239   55.1131 H       1  ZINC000265786263    0.0800
     31 H31        -8.3088   -0.9140   54.5317 H       1  ZINC000265786263    0.0900
     32 H32       -10.1396   -1.3999   52.5497 H       1  ZINC000265786263    0.1100
     33 H33       -12.3109   -0.5263   53.5286 H       1  ZINC000265786263    0.1000
     34 H34       -11.5034    1.0959   53.8719 H       1  ZINC000265786263    0.1100
     35 H35       -11.0225    1.3801   51.3976 H       1  ZINC000265786263    0.1000
     36 H36       -11.8300   -0.2421   51.0544 H       1  ZINC000265786263    0.1000
     37 H37        -9.7793    2.4623   53.2499 H       1  ZINC000265786263    0.4400
     38 H38        -6.3502    0.3814   49.8887 H       1  ZINC000265786263    0.1300
     39 H39        -6.8104    2.0792   49.6171 H       1  ZINC000265786263    0.1300
     40 H40        -3.0182    4.0069   50.9364 H       1  ZINC000265786263    0.0900
     41 H41        -2.9153    2.4801   51.8523 H       1  ZINC000265786263    0.0900
     42 H42        -0.9397    2.8686   50.3249 H       1  ZINC000265786263    0.0900
     43 H43        -1.8272    1.3670   49.9675 H       1  ZINC000265786263    0.0400
     44 H44        -0.8137    3.4811   47.0385 H       1  ZINC000265786263    0.0900
     45 H45        -0.0706    2.5269   48.3444 H       1  ZINC000265786263    0.0500
     46 H46        -0.9237    0.1054   48.6313 H       1  ZINC000265786263    0.1200
     47 H47        -1.3225   -1.9616   47.3555 H       1  ZINC000265786263    0.1300
     48 H48        -1.8283   -1.8467   44.9495 H       1  ZINC000265786263    0.1300
     49 H49        -2.1343   -0.5043   43.1278 H       1  ZINC000265786263    0.3900
     50 H50        -1.5407    2.4148   45.1000 H       1  ZINC000265786263    0.1300
     51 H51        -3.4626    2.6549   46.9940 H       1  ZINC000265786263    0.1000
     52 H52        -3.2690    1.2449   48.0637 H       1  ZINC000265786263    0.0400
     53 H53        -5.4404    2.2598   48.5106 H       1  ZINC000265786263    0.1000
     54 H54        -4.6861    3.8604   48.7340 H       1  ZINC000265786263    0.0800
@<TRIPOS>BOND
     1     1     2    1
     2     1    29    1
     3     1    30    1
     4     1    31    1
     5     2    27    1
     6     2     3    1
     7     2     6    1
     8     3     5    1
     9     3     4    1
    10     3    32    1
    11     4     5    1
    12     4    33    1
    13     4    34    1
    14     5    35    1
    15     5    36    1
    16     6     7   am
    17     6    37    1
    18     7     8    2
    19     7     9   am
    20     9    10    1
    21     9    27   am
    22    10    11    1
    23    10    38    1
    24    10    39    1
    25    11    12    2
    26    11    13   am
    27    13    26    1
    28    13    14    1
    29    14    15    1
    30    14    40    1
    31    14    41    1
    32    15    16    1
    33    15    42    1
    34    15    43    1
    35    16    17    1
    36    16    25    1
    37    17    18    1
    38    17    44    1
    39    17    45    1
    40    18    24   ar
    41    18    19   ar
    42    19    20   ar
    43    19    46    1
    44    20    21   ar
    45    20    47    1
    46    21    22   ar
    47    21    48    1
    48    22    23    1
    49    22    24   ar
    50    23    49    1
    51    24    50    1
    52    25    26    1
    53    25    51    1
    54    25    52    1
    55    26    53    1
    56    26    54    1
    57    27    28    2
@<TRIPOS>SUBSTRUCTURE
     1 ZINC000265786263        1 TEMP              0 ****  ****    0 ROOT


##########                                Name:     oleObject27.pdb
##########                DOCK_Rotatable_Bonds:                   9
##########                         Heavy_Atoms:                  35
##########                    Molecular_Weight:             513.466
##########                DOCK_Rotatable_Bonds:                   9
##########                       Formal_Charge:         0.000199873
##########                     HBond_Acceptors:                   8
##########                        HBond_Donors:                   1
##########                         Heavy_Atoms:                  35
##########                          Grid_Score:          -35.528282
##########                     Grid_vdw_energy:          -34.915573
##########                      Grid_es_energy:           -0.612709
##########           Internal_energy_repulsive:           19.782934

@<TRIPOS>MOLECULE
oleObject27.pdb
 65 68 1 0 0
SMALL
NO_CHARGES


@<TRIPOS>ATOM
      1 C           0.4584    5.0917   51.0670 C.ar    1  UNL        -0.0620
      2 C          -0.8471    5.4612   51.4215 C.ar    1  UNL        -0.0590
      3 C          -1.9591    4.8534   50.8066 C.ar    1  UNL        -0.0456
      4 C          -1.7575    3.8524   49.8240 C.ar    1  UNL        -0.0187
      5 C          -0.4368    3.4989   49.4697 C.ar    1  UNL        -0.0565
      6 C           0.6634    4.1116   50.0874 C.ar    1  UNL        -0.0619
      7 C          -2.9466    3.1662   49.1331 C.3     1  UNL         0.0921
      8 C          -2.5081    2.1201   48.1034 C.ar    1  UNL         0.0681
      9 C          -1.9960    0.8545   48.4845 C.ar    1  UNL        -0.0272
     10 C          -1.6056   -0.0408   47.4708 C.ar    1  UNL        -0.0559
     11 C          -1.7261    0.3504   46.1294 C.ar    1  UNL        -0.0435
     12 C          -2.2282    1.6290   45.8443 C.ar    1  UNL         0.0272
     13 N          -2.6047    2.4923   46.8063 N.ar    1  UNL        -0.2587
     14 C          -1.8442    0.4425   49.9443 C.3     1  UNL        -0.0379
     15 N          -3.8996    2.5767   50.0846 N.am    1  UNL        -0.2865
     16 C          -5.2736    2.6245   49.9333 C.2     1  UNL         0.3014
     17 O          -5.7970    3.1762   48.9796 O.2     1  UNL        -0.2541
     18 N          -6.0122    2.0065   50.9442 N.am    1  UNL        -0.2833
     19 C          -5.3653    1.3403   52.1075 C.3     1  UNL         0.0284
     20 C          -6.2915    0.4062   52.9238 C.3     1  UNL         0.0142
     21 N          -7.6008    1.0181   53.2096 N.4     1  UNL        -0.2979
     22 C          -8.2711    1.3517   51.9373 C.3     1  UNL         0.0142
     23 C          -7.4488    2.3480   51.0879 C.3     1  UNL         0.0284
     24 C          -7.5251    2.1138   54.2058 C.3     1  UNL         0.0223
     25 C          -7.2513    1.6155   55.6390 C.3     1  UNL         0.0661
     26 O          -8.5207    1.4722   56.3000 O.3     1  UNL        -0.3432
     27 C          -8.6608    1.0166   57.5968 C.ar    1  UNL         0.0937
     28 C          -8.2127    1.7657   58.7058 C.ar    1  UNL        -0.0288
     29 C          -8.3748    1.2654   60.0086 C.ar    1  UNL        -0.0408
     30 C          -8.9839    0.0171   60.2119 C.ar    1  UNL         0.0422
     31 C          -9.4325   -0.7337   59.1141 C.ar    1  UNL        -0.0221
     32 C          -9.2719   -0.2360   57.8103 C.ar    1  UNL         0.0723
     33 CL         -9.8430   -1.1992   56.4605 Cl      1  UNL        -0.0814
     34 CL         -9.1844   -0.6034   61.8366 Cl      1  UNL        -0.0843
     35 C          -3.3569    5.3042   51.2175 C.3     1  UNL        -0.0394
     36 H           1.3085    5.5683   51.5467 H       1  UNL         0.0623
     37 H          -0.9937    6.2272   52.1777 H       1  UNL         0.0626
     38 H          -0.2556    2.7492   48.7053 H       1  UNL         0.0627
     39 H           1.6729    3.8278   49.8046 H       1  UNL         0.0623
     40 H          -3.4994    3.9491   48.6057 H       1  UNL         0.0625
     41 H          -1.2109   -1.0225   47.7174 H       1  UNL         0.0627
     42 H          -1.4314   -0.3198   45.3274 H       1  UNL         0.0639
     43 H          -2.3325    1.9732   44.8161 H       1  UNL         0.0840
     44 H          -1.2707    1.1888   50.5083 H       1  UNL         0.0280
     45 H          -1.3178   -0.5153   50.0420 H       1  UNL         0.0280
     46 H          -2.8234    0.3301   50.4260 H       1  UNL         0.0280
     47 H          -3.5287    2.1468   50.9203 H       1  UNL         0.1521
     48 H          -4.9753    2.1226   52.7712 H       1  UNL         0.0484
     49 H          -4.5138    0.7391   51.7658 H       1  UNL         0.0484
     50 H          -5.7912    0.1196   53.8577 H       1  UNL         0.0447
     51 H          -6.4476   -0.5133   52.3446 H       1  UNL         0.0447
     52 H          -9.2745    1.7571   52.1118 H       1  UNL         0.0447
     53 H          -8.3989    0.4312   51.3530 H       1  UNL         0.0447
     54 H          -7.5157    3.3445   51.5424 H       1  UNL         0.0484
     55 H          -7.9085    2.4095   50.0931 H       1  UNL         0.0484
     56 H          -8.4537    2.6984   54.2066 H       1  UNL         0.0455
     57 H          -6.7104    2.7946   53.9269 H       1  UNL         0.0455
     58 H          -6.6262    2.3464   56.1678 H       1  UNL         0.0586
     59 H          -6.7326    0.6495   55.6110 H       1  UNL         0.0586
     60 H          -7.7398    2.7331   58.5721 H       1  UNL         0.0652
     61 H          -8.0282    1.8459   60.8589 H       1  UNL         0.0639
     62 H          -9.9037   -1.6996   59.2726 H       1  UNL         0.0655
     63 H          -3.3221    6.1532   51.9115 H       1  UNL         0.0280
     64 H          -3.9009    4.4942   51.7191 H       1  UNL         0.0280
     65 H          -3.9423    5.6223   50.3460 H       1  UNL         0.0280
@<TRIPOS>BOND
     1     1     2   ar
     2     1     6   ar
     3     1    36    1
     4     2     3   ar
     5     2    37    1
     6     3     4   ar
     7     3    35    1
     8     4     5   ar
     9     4     7    1
    10     5     6   ar
    11     5    38    1
    12     6    39    1
    13     7     8    1
    14     7    15    1
    15     7    40    1
    16     8     9   ar
    17     8    13   ar
    18     9    10   ar
    19     9    14    1
    20    10    11   ar
    21    10    41    1
    22    11    12   ar
    23    11    42    1
    24    12    13   ar
    25    12    43    1
    26    14    44    1
    27    14    45    1
    28    14    46    1
    29    15    16   am
    30    15    47    1
    31    16    17    2
    32    16    18   am
    33    18    19    1
    34    18    23    1
    35    19    20    1
    36    19    48    1
    37    19    49    1
    38    20    21    1
    39    20    50    1
    40    20    51    1
    41    21    22    1
    42    21    24    1
    43    22    23    1
    44    22    52    1
    45    22    53    1
    46    23    54    1
    47    23    55    1
    48    24    25    1
    49    24    56    1
    50    24    57    1
    51    25    26    1
    52    25    58    1
    53    25    59    1
    54    26    27    1
    55    27    28   ar
    56    27    32   ar
    57    28    29   ar
    58    28    60    1
    59    29    30   ar
    60    29    61    1
    61    30    31   ar
    62    30    34    1
    63    31    32   ar
    64    31    62    1
    65    32    33    1
    66    35    63    1
    67    35    64    1
    68    35    65    1
@<TRIPOS>SUBSTRUCTURE
     1 UNL         1 TEMP              0 ****  ****    0 ROOT


##########                                Name:    ZINC000992031068
##########                DOCK_Rotatable_Bonds:                   8
##########                         Heavy_Atoms:                  25
##########                    Molecular_Weight:             342.401
##########                DOCK_Rotatable_Bonds:                   8
##########                       Formal_Charge:           0.0199999
##########                     HBond_Acceptors:                   8
##########                        HBond_Donors:                   2
##########                         Heavy_Atoms:                  25
##########                          Grid_Score:          -35.499336
##########                     Grid_vdw_energy:          -31.700857
##########                      Grid_es_energy:           -3.798478
##########           Internal_energy_repulsive:            5.743550

@<TRIPOS>MOLECULE
ZINC000992031068
 47 49 1 0 0
SMALL
USER_CHARGES


@<TRIPOS>ATOM
      1 C1        -10.4230   -0.5893   54.9858 C.3     1  ZINC000992031068   -0.1100
      2 C2         -9.0528   -0.0549   54.6569 C.ar    1  ZINC000992031068    0.1800
      3 C3         -8.5992   -0.0432   53.3456 C.ar    1  ZINC000992031068   -0.1700
      4 C4         -7.3235    0.4620   53.0921 C.ar    1  ZINC000992031068    0.1300
      5 C5         -6.7877    0.4991   51.7082 C.2     1  ZINC000992031068    0.5700
      6 O6         -7.0622   -0.3893   50.9266 O.2     1  ZINC000992031068   -0.5200
      7 N7         -5.9967    1.5185   51.3188 N.am    1  ZINC000992031068   -0.7100
      8 C8         -5.4694    1.5560   49.9526 C.3     1  ZINC000992031068    0.1300
      9 C9         -4.1599    2.3468   49.9328 C.3     1  ZINC000992031068   -0.1200
     10 C10        -2.9349    1.5210   50.3601 C.3     1  ZINC000992031068   -0.1400
     11 C11        -2.1609    2.2353   49.2396 C.3     1  ZINC000992031068    0.1200
     12 N12        -1.2458    1.3570   48.5065 N.am    1  ZINC000992031068   -0.7200
     13 C13        -0.5178    1.8458   47.4829 C.2     1  ZINC000992031068    0.5200
     14 O14        -0.6191    3.0130   47.1698 O.2     1  ZINC000992031068   -0.5200
     15 C15         0.4221    0.9419   46.7276 C.3     1  ZINC000992031068   -0.0800
     16 C16        -0.2909    0.3603   45.5341 C.2     1  ZINC000992031068    0.1000
     17 C17        -0.2854    0.8639   44.2782 C.2     1  ZINC000992031068   -0.2500
     18 C18        -1.0668    0.0264   43.4753 C.2     1  ZINC000992031068    0.0500
     19 N19        -1.5248   -0.9451   44.2225 N.2     1  ZINC000992031068   -0.2900
     20 N20        -1.0444   -0.7592   45.5252 N.pl3   1  ZINC000992031068   -0.3700
     21 C21        -1.3191   -1.6225   46.6764 C.3     1  ZINC000992031068    0.1000
     22 C22        -3.5152    2.4363   48.5395 C.3     1  ZINC000992031068   -0.1400
     23 N23        -6.5953    0.9107   54.1117 N.ar    1  ZINC000992031068   -0.5000
     24 C24        -7.0667    0.8800   55.3398 C.ar    1  ZINC000992031068    0.3000
     25 N25        -8.2697    0.4137   55.6133 N.ar    1  ZINC000992031068   -0.5100
     26 H26       -11.1513    0.2199   54.9313 H       1  ZINC000992031068    0.0900
     27 H27       -10.6906   -1.3677   54.2712 H       1  ZINC000992031068    0.0900
     28 H28       -10.4182   -1.0065   55.9928 H       1  ZINC000992031068    0.0900
     29 H29        -9.2173   -0.4158   52.5421 H       1  ZINC000992031068    0.1600
     30 H30        -5.7765    2.2274   51.9433 H       1  ZINC000992031068    0.4100
     31 H31        -5.2851    0.5390   49.6062 H       1  ZINC000992031068    0.0700
     32 H32        -6.1946    2.0374   49.2963 H       1  ZINC000992031068    0.0800
     33 H33        -4.2384    3.3084   50.4401 H       1  ZINC000992031068    0.1000
     34 H34        -2.5747    1.7600   51.3606 H       1  ZINC000992031068    0.0800
     35 H35        -3.0518    0.4498   50.1958 H       1  ZINC000992031068    0.0900
     36 H36        -1.6903    3.1654   49.5584 H       1  ZINC000992031068    0.1200
     37 H37        -1.1639    0.4237   48.7577 H       1  ZINC000992031068    0.4000
     38 H38         1.2858    1.5153   46.3910 H       1  ZINC000992031068    0.1200
     39 H39         0.7539    0.1351   47.3813 H       1  ZINC000992031068    0.1100
     40 H40         0.2306    1.7552   43.9532 H       1  ZINC000992031068    0.1500
     41 H41        -1.2592    0.1592   42.4209 H       1  ZINC000992031068    0.1800
     42 H42        -0.5585   -2.4010   46.7365 H       1  ZINC000992031068    0.0800
     43 H43        -1.3024   -1.0270   47.5893 H       1  ZINC000992031068    0.0800
     44 H44        -2.3007   -2.0818   46.5602 H       1  ZINC000992031068    0.0900
     45 H45        -3.7906    1.6153   47.8774 H       1  ZINC000992031068    0.0900
     46 H46        -3.6233    3.4142   48.0704 H       1  ZINC000992031068    0.0800
     47 H47        -6.4522    1.2512   56.1466 H       1  ZINC000992031068    0.2100
@<TRIPOS>BOND
     1     1     2    1
     2     1    26    1
     3     1    27    1
     4     1    28    1
     5     2    25   ar
     6     2     3   ar
     7     3     4   ar
     8     3    29    1
     9     4     5    1
    10     4    23   ar
    11     5     6    2
    12     5     7   am
    13     7     8    1
    14     7    30    1
    15     8     9    1
    16     8    31    1
    17     8    32    1
    18     9    22    1
    19     9    10    1
    20     9    33    1
    21    10    11    1
    22    10    34    1
    23    10    35    1
    24    11    12    1
    25    11    22    1
    26    11    36    1
    27    12    13   am
    28    12    37    1
    29    13    14    2
    30    13    15    1
    31    15    16    1
    32    15    38    1
    33    15    39    1
    34    16    20    1
    35    16    17    2
    36    17    18    1
    37    17    40    1
    38    18    19    2
    39    18    41    1
    40    19    20    1
    41    20    21    1
    42    21    42    1
    43    21    43    1
    44    21    44    1
    45    22    45    1
    46    22    46    1
    47    23    24   ar
    48    24    25   ar
    49    24    47    1
@<TRIPOS>SUBSTRUCTURE
     1 ZINC000992031068        1 TEMP              0 ****  ****    0 ROOT


##########                                Name:    ZINC000058174787
##########                DOCK_Rotatable_Bonds:                   9
##########                         Heavy_Atoms:                  27
##########                    Molecular_Weight:             413.882
##########                DOCK_Rotatable_Bonds:                   9
##########                       Formal_Charge:           0.0200002
##########                     HBond_Acceptors:                  10
##########                        HBond_Donors:                   1
##########                         Heavy_Atoms:                  27
##########                          Grid_Score:          -35.419682
##########                     Grid_vdw_energy:          -35.048203
##########                      Grid_es_energy:           -0.371479
##########           Internal_energy_repulsive:            7.247093

@<TRIPOS>MOLECULE
ZINC000058174787
 47 48 1 0 0
SMALL
USER_CHARGES


@<TRIPOS>ATOM
      1 C1         -6.6446    2.5557   57.4402 C.3     1  ZINC000058174787   -0.0700
      2 C2         -7.2643    1.5638   56.4898 C.2     1  ZINC000058174787    0.2100
      3 N3         -7.0470    1.5040   55.2044 N.2     1  ZINC000058174787   -0.4200
      4 C4         -7.7650    0.4995   54.6806 C.2     1  ZINC000058174787   -0.5600
      5 S5         -7.8012    0.0278   52.9833 S.o2    1  ZINC000058174787    2.7400
      6 O6         -6.6255   -0.7367   52.7542 O.2     1  ZINC000058174787   -0.9500
      7 O7         -9.1100   -0.4648   52.7316 O.2     1  ZINC000058174787   -0.9600
      8 N8         -7.6417    1.4110   52.0867 N.am    1  ZINC000058174787   -1.1100
      9 C9         -6.4464    2.2452   52.2333 C.3     1  ZINC000058174787    0.1300
     10 C10        -6.2780    3.1184   50.9883 C.3     1  ZINC000058174787   -0.1200
     11 C11        -5.4641    2.3759   49.9602 C.2     1  ZINC000058174787    0.4700
     12 O12        -5.9759    1.5029   49.3000 O.2     1  ZINC000058174787   -0.5000
     13 O13        -4.1705    2.6844   49.7777 O.3     1  ZINC000058174787   -0.3300
     14 C14        -3.3755    1.7554   48.9946 C.3     1  ZINC000058174787    0.0400
     15 H15        -3.9845    1.3453   48.1891 H       1  ZINC000058174787    0.1200
     16 C16        -2.8866    0.6184   49.8941 C.3     1  ZINC000058174787   -0.1700
     17 C17        -2.1896    2.4784   48.4096 C.2     1  ZINC000058174787    0.4000
     18 O18        -1.7846    3.4972   48.9277 O.2     1  ZINC000058174787   -0.4200
     19 C19        -1.5235    1.9482   47.2101 C.ar    1  ZINC000058174787   -0.1600
     20 C20        -0.1720    1.5897   47.2574 C.ar    1  ZINC000058174787   -0.0600
     21 C21         0.4455    1.0932   46.1298 C.ar    1  ZINC000058174787   -0.1200
     22 C22        -0.2689    0.9487   44.9513 C.ar    1  ZINC000058174787    0.0000
     23 Cl23        0.5170    0.3219   43.5361 Cl      1  ZINC000058174787   -0.0500
     24 C24        -1.6078    1.3018   44.8972 C.ar    1  ZINC000058174787   -0.1200
     25 C25        -2.2398    1.7947   46.0183 C.ar    1  ZINC000058174787   -0.0400
     26 C26        -8.4535   -0.0854   55.6794 C.2     1  ZINC000058174787    0.0700
     27 N27        -8.1322    0.5860   56.8281 N.pl3   1  ZINC000058174787   -0.4500
     28 C28        -8.6412    0.3023   58.1722 C.3     1  ZINC000058174787    0.0600
     29 H29        -5.7092    2.1521   57.8276 H       1  ZINC000058174787    0.0900
     30 H30        -6.4469    3.4892   56.9132 H       1  ZINC000058174787    0.1000
     31 H31        -7.3295    2.7433   58.2671 H       1  ZINC000058174787    0.0800
     32 H32        -8.3397    1.6687   51.4644 H       1  ZINC000058174787    0.4200
     33 H33        -6.5529    2.8816   53.1118 H       1  ZINC000058174787    0.0900
     34 H34        -5.5703    1.6073   52.3508 H       1  ZINC000058174787    0.0900
     35 H35        -7.2585    3.3542   50.5745 H       1  ZINC000058174787    0.1200
     36 H36        -5.7663    4.0421   51.2589 H       1  ZINC000058174787    0.1200
     37 H37        -2.2775    1.0286   50.6996 H       1  ZINC000058174787    0.0800
     38 H38        -3.7443    0.0954   50.3172 H       1  ZINC000058174787    0.0800
     39 H39        -2.2898   -0.0790   49.3062 H       1  ZINC000058174787    0.0800
     40 H40         0.3861    1.7023   48.1751 H       1  ZINC000058174787    0.1400
     41 H41         1.4889    0.8164   46.1647 H       1  ZINC000058174787    0.1400
     42 H42        -2.1584    1.1865   43.9752 H       1  ZINC000058174787    0.1400
     43 H43        -3.2833    2.0691   45.9748 H       1  ZINC000058174787    0.1500
     44 H44        -9.1266   -0.9255   55.5915 H       1  ZINC000058174787    0.1900
     45 H45        -7.9855   -0.4157   58.6649 H       1  ZINC000058174787    0.0900
     46 H46        -8.6704    1.2248   58.7518 H       1  ZINC000058174787    0.1000
     47 H47        -9.6461   -0.1135   58.0999 H       1  ZINC000058174787    0.0900
@<TRIPOS>BOND
     1     1     2    1
     2     1    29    1
     3     1    30    1
     4     1    31    1
     5     2    27    1
     6     2     3    2
     7     3     4    1
     8     4     5    1
     9     4    26    2
    10     5     6    2
    11     5     7    2
    12     5     8   am
    13     8     9    1
    14     8    32    1
    15     9    10    1
    16     9    33    1
    17     9    34    1
    18    10    11    1
    19    10    35    1
    20    10    36    1
    21    11    12    2
    22    11    13    1
    23    13    14    1
    24    14    15    1
    25    14    16    1
    26    14    17    1
    27    16    37    1
    28    16    38    1
    29    16    39    1
    30    17    18    2
    31    17    19    1
    32    19    25   ar
    33    19    20   ar
    34    20    21   ar
    35    20    40    1
    36    21    22   ar
    37    21    41    1
    38    22    23    1
    39    22    24   ar
    40    24    25   ar
    41    24    42    1
    42    25    43    1
    43    26    27    1
    44    26    44    1
    45    27    28    1
    46    28    45    1
    47    28    46    1
    48    28    47    1
@<TRIPOS>SUBSTRUCTURE
     1 ZINC000058174787        1 TEMP              0 ****  ****    0 ROOT


##########                                Name:    ZINC000671418508
##########                DOCK_Rotatable_Bonds:                   9
##########                         Heavy_Atoms:                  28
##########                    Molecular_Weight:             405.884
##########                DOCK_Rotatable_Bonds:                   9
##########                       Formal_Charge:         -1.3411e-07
##########                     HBond_Acceptors:                   9
##########                        HBond_Donors:                   2
##########                         Heavy_Atoms:                  28
##########                          Grid_Score:          -35.277584
##########                     Grid_vdw_energy:          -33.489651
##########                      Grid_es_energy:           -1.787934
##########           Internal_energy_repulsive:           22.662643

@<TRIPOS>MOLECULE
ZINC000671418508
 52 54 1 0 0
SMALL
USER_CHARGES


@<TRIPOS>ATOM
      1 C1         -5.5742    3.0234   58.0792 C.3     1  ZINC000671418508    0.1000
      2 N2         -6.6217    2.0271   57.8417 N.pl3   1  ZINC000671418508   -0.3700
      3 C3         -7.1239    1.6743   56.6399 C.2     1  ZINC000671418508    0.0800
      4 C4         -8.0680    0.7278   56.8492 C.2     1  ZINC000671418508   -0.2700
      5 C5         -8.8902    0.0453   55.7864 C.3     1  ZINC000671418508    0.2000
      6 N6         -8.0597   -0.1903   54.6028 N.am    1  ZINC000671418508   -0.6900
      7 C7         -8.5817   -0.0296   53.3706 C.2     1  ZINC000671418508    0.5100
      8 O8         -9.7399    0.3088   53.2416 O.2     1  ZINC000671418508   -0.5100
      9 C9         -7.7340   -0.2682   52.1632 C.2     1  ZINC000671418508    0.5100
     10 O10        -7.5659   -1.3980   51.7533 O.2     1  ZINC000671418508   -0.5200
     11 N11        -7.1560    0.7715   51.5294 N.am    1  ZINC000671418508   -0.5800
     12 C12        -7.3417    2.1481   52.0130 C.3     1  ZINC000671418508    0.0800
     13 C13        -5.9642    2.8047   52.1527 C.3     1  ZINC000671418508    0.0400
     14 N14        -5.2373    2.6856   50.8818 N.3     1  ZINC000671418508   -0.5200
     15 C15        -3.9837    3.4505   50.9187 C.3     1  ZINC000671418508    0.1300
     16 H16        -3.5748    3.4295   51.9288 H       1  ZINC000671418508    0.0600
     17 C17        -4.2580    4.8992   50.5097 C.3     1  ZINC000671418508    0.0900
     18 O18        -5.6526    5.0634   50.2447 O.3     1  ZINC000671418508   -0.5500
     19 C19        -2.9930    2.8377   49.9627 C.ar    1  ZINC000671418508   -0.0800
     20 C20        -1.8889    2.1635   50.4500 C.ar    1  ZINC000671418508   -0.0600
     21 C21        -0.9798    1.6012   49.5737 C.ar    1  ZINC000671418508   -0.1200
     22 C22        -1.1752    1.7132   48.2085 C.ar    1  ZINC000671418508   -0.0300
     23 Cl23       -0.0342    1.0068   47.1073 Cl      1  ZINC000671418508   -0.0700
     24 C24        -2.2804    2.3880   47.7215 C.ar    1  ZINC000671418508   -0.1200
     25 C25        -3.1917    2.9450   48.5988 C.ar    1  ZINC000671418508   -0.1100
     26 C26        -4.9857    1.2788   50.5417 C.3     1  ZINC000671418508    0.0400
     27 C27        -6.3181    0.5590   50.3395 C.3     1  ZINC000671418508    0.1100
     28 C28        -8.1453    0.4940   58.2260 C.2     1  ZINC000671418508    0.0700
     29 N29        -7.2744    1.2680   58.8215 N.2     1  ZINC000671418508   -0.2900
     30 H30        -4.5982    2.5388   58.0490 H       1  ZINC000671418508    0.0800
     31 H31        -5.6223    3.7921   57.3079 H       1  ZINC000671418508    0.0900
     32 H32        -5.7227    3.4805   59.0575 H       1  ZINC000671418508    0.0900
     33 H33        -6.8261    2.0759   55.6825 H       1  ZINC000671418508    0.1800
     34 H34        -9.2582   -0.9072   56.1676 H       1  ZINC000671418508    0.0800
     35 H35        -9.7348    0.6797   55.5173 H       1  ZINC000671418508    0.0800
     36 H36        -7.1343   -0.4620   54.7058 H       1  ZINC000671418508    0.4100
     37 H37        -7.9440    2.7090   51.2984 H       1  ZINC000671418508    0.0800
     38 H38        -7.8396    2.1315   52.9825 H       1  ZINC000671418508    0.1400
     39 H39        -6.0875    3.8582   52.4039 H       1  ZINC000671418508    0.0900
     40 H40        -5.4017    2.3056   52.9418 H       1  ZINC000671418508    0.0400
     41 H41        -3.9606    5.5674   51.3178 H       1  ZINC000671418508    0.0500
     42 H42        -3.6871    5.1377   49.6123 H       1  ZINC000671418508    0.0500
     43 H43        -5.9537    4.6250   49.4370 H       1  ZINC000671418508    0.3800
     44 H44        -1.7363    2.0765   51.5156 H       1  ZINC000671418508    0.1400
     45 H45        -0.1171    1.0749   49.9544 H       1  ZINC000671418508    0.1300
     46 H46        -2.4332    2.4760   46.6560 H       1  ZINC000671418508    0.1300
     47 H47        -4.0547    3.4715   48.2187 H       1  ZINC000671418508    0.1300
     48 H48        -4.3992    1.2257   49.6245 H       1  ZINC000671418508    0.0900
     49 H49        -4.4368    0.8010   51.3531 H       1  ZINC000671418508    0.0400
     50 H50        -6.1407   -0.5075   50.2003 H       1  ZINC000671418508    0.1000
     51 H51        -6.8250    0.9659   49.4645 H       1  ZINC000671418508    0.0800
     52 H52        -8.8061   -0.2077   58.7131 H       1  ZINC000671418508    0.1900
@<TRIPOS>BOND
     1     1     2    1
     2     1    30    1
     3     1    31    1
     4     1    32    1
     5     2    29    1
     6     2     3    1
     7     3     4    2
     8     3    33    1
     9     4     5    1
    10     4    28    1
    11     5     6    1
    12     5    34    1
    13     5    35    1
    14     6     7   am
    15     6    36    1
    16     7     8    2
    17     7     9    1
    18     9    10    2
    19     9    11   am
    20    11    27    1
    21    11    12    1
    22    12    13    1
    23    12    37    1
    24    12    38    1
    25    13    14    1
    26    13    39    1
    27    13    40    1
    28    14    15    1
    29    14    26    1
    30    15    16    1
    31    15    17    1
    32    15    19    1
    33    17    18    1
    34    17    41    1
    35    17    42    1
    36    18    43    1
    37    19    25   ar
    38    19    20   ar
    39    20    21   ar
    40    20    44    1
    41    21    22   ar
    42    21    45    1
    43    22    23    1
    44    22    24   ar
    45    24    25   ar
    46    24    46    1
    47    25    47    1
    48    26    27    1
    49    26    48    1
    50    26    49    1
    51    27    50    1
    52    27    51    1
    53    28    29    2
    54    28    52    1
@<TRIPOS>SUBSTRUCTURE
     1 ZINC000671418508        1 TEMP              0 ****  ****    0 ROOT


##########                                Name:    ZINC001143596311
##########                DOCK_Rotatable_Bonds:                   9
##########                         Heavy_Atoms:                  21
##########                    Molecular_Weight:             335.811
##########                DOCK_Rotatable_Bonds:                   9
##########                       Formal_Charge:          0.00999959
##########                     HBond_Acceptors:                   9
##########                        HBond_Donors:                   3
##########                         Heavy_Atoms:                  21
##########                          Grid_Score:          -35.253117
##########                     Grid_vdw_energy:          -32.698410
##########                      Grid_es_energy:           -2.554708
##########           Internal_energy_repulsive:           13.307053

@<TRIPOS>MOLECULE
ZINC001143596311
 39 39 1 0 0
SMALL
USER_CHARGES


@<TRIPOS>ATOM
      1 C1         -6.8964   -0.4282   67.5805 C.3     1  ZINC001143596311    0.0400
      2 O2         -7.9487   -1.2697   67.1043 O.3     1  ZINC001143596311   -0.2600
      3 N3         -8.8351   -0.6239   66.1360 N.3     1  ZINC001143596311   -0.3700
      4 C4         -9.5550    0.5002   66.7494 C.3     1  ZINC001143596311    0.0000
      5 C5         -8.0883   -0.1859   64.9492 C.3     1  ZINC001143596311    0.0400
      6 C6         -9.0582    0.0223   63.7845 C.3     1  ZINC001143596311   -0.1300
      7 C7         -8.5269   -0.6976   62.5433 C.3     1  ZINC001143596311    0.1200
      8 N8         -9.6488   -1.2590   61.7867 N.am    1  ZINC001143596311   -0.7200
      9 C9         -9.5216   -1.4905   60.4651 C.2     1  ZINC001143596311    0.5600
     10 O10        -8.4755   -1.2349   59.9012 O.2     1  ZINC001143596311   -0.5200
     11 C11       -10.6539   -2.0553   59.7015 C.ar    1  ZINC001143596311   -0.1500
     12 C12       -10.4709   -2.4710   58.3815 C.ar    1  ZINC001143596311   -0.0200
     13 C13       -11.5313   -2.9973   57.6740 C.ar    1  ZINC001143596311   -0.1300
     14 C14       -12.7758   -3.1135   58.2704 C.ar    1  ZINC001143596311    0.0700
     15 Cl15      -14.1058   -3.7770   57.3735 Cl      1  ZINC001143596311   -0.0200
     16 C16       -12.9634   -2.7028   59.5801 C.ar    1  ZINC001143596311   -0.6800
     17 S17       -14.5503   -2.8552   60.3306 S.o2    1  ZINC001143596311    2.7000
     18 N18       -14.3509   -2.6007   61.9547 N.am    1  ZINC001143596311   -1.2500
     19 O19       -15.3288   -1.7693   59.8470 O.2     1  ZINC001143596311   -0.9400
     20 O20       -14.9357   -4.2148   60.1818 O.2     1  ZINC001143596311   -0.9500
     21 C21       -11.9094   -2.1808   60.2995 C.ar    1  ZINC001143596311    0.0500
     22 H22        -6.2782   -0.1094   66.7412 H       1  ZINC001143596311    0.0400
     23 H23        -7.3242    0.4469   68.0697 H       1  ZINC001143596311    0.0500
     24 H24        -6.2842   -0.9802   68.2936 H       1  ZINC001143596311    0.0900
     25 H25        -8.8377    1.2365   67.1120 H       1  ZINC001143596311    0.0400
     26 H26       -10.2065    0.9623   66.0078 H       1  ZINC001143596311    0.0900
     27 H27       -10.1548    0.1358   67.5833 H       1  ZINC001143596311    0.0800
     28 H28        -7.5761    0.7512   65.1675 H       1  ZINC001143596311    0.0500
     29 H29        -7.3552   -0.9464   64.6802 H       1  ZINC001143596311    0.0900
     30 H30       -10.0353   -0.3822   64.0486 H       1  ZINC001143596311    0.0800
     31 H31        -9.1507    1.0879   63.5747 H       1  ZINC001143596311    0.0800
     32 H32        -7.9844    0.0105   61.9169 H       1  ZINC001143596311    0.0800
     33 H33        -7.8562   -1.5008   62.8484 H       1  ZINC001143596311    0.0800
     34 H34       -10.4831   -1.4641   62.2370 H       1  ZINC001143596311    0.4000
     35 H35        -9.5010   -2.3802   57.9151 H       1  ZINC001143596311    0.1500
     36 H36       -11.3910   -3.3192   56.6527 H       1  ZINC001143596311    0.1600
     37 H37       -13.7672   -3.1807   62.4685 H       1  ZINC001143596311    0.4200
     38 H38       -14.8177   -1.8717   62.3924 H       1  ZINC001143596311    0.4200
     39 H39       -12.0569   -1.8609   61.3205 H       1  ZINC001143596311    0.1700
@<TRIPOS>BOND
     1     1     2    1
     2     1    22    1
     3     1    23    1
     4     1    24    1
     5     2     3    1
     6     3     4    1
     7     3     5    1
     8     4    25    1
     9     4    26    1
    10     4    27    1
    11     5     6    1
    12     5    28    1
    13     5    29    1
    14     6     7    1
    15     6    30    1
    16     6    31    1
    17     7     8    1
    18     7    32    1
    19     7    33    1
    20     8     9   am
    21     8    34    1
    22     9    10    2
    23     9    11    1
    24    11    21   ar
    25    11    12   ar
    26    12    13   ar
    27    12    35    1
    28    13    14   ar
    29    13    36    1
    30    14    15    1
    31    14    16   ar
    32    16    17    1
    33    16    21   ar
    34    17    18   am
    35    17    19    2
    36    17    20    2
    37    18    37    1
    38    18    38    1
    39    21    39    1
@<TRIPOS>SUBSTRUCTURE
     1 ZINC001143596311        1 TEMP              0 ****  ****    0 ROOT


##########                                Name:    ZINC000583220082
##########                DOCK_Rotatable_Bonds:                   9
##########                         Heavy_Atoms:                  29
##########                    Molecular_Weight:             417.492
##########                DOCK_Rotatable_Bonds:                   9
##########                       Formal_Charge:          -0.0400006
##########                     HBond_Acceptors:                  11
##########                        HBond_Donors:                   3
##########                         Heavy_Atoms:                  29
##########                          Grid_Score:          -35.183731
##########                     Grid_vdw_energy:          -35.256668
##########                      Grid_es_energy:            0.072937
##########           Internal_energy_repulsive:           15.766456

@<TRIPOS>MOLECULE
ZINC000583220082
 52 54 1 0 0
SMALL
USER_CHARGES


@<TRIPOS>ATOM
      1 C1        -11.5141   -0.8696   53.6771 C.3     1  ZINC000583220082    0.0800
      2 N2        -10.2631   -0.7024   54.4209 N.am    1  ZINC000583220082   -0.6300
      3 C3        -10.2035   -1.0527   55.8421 C.3     1  ZINC000583220082    0.0800
      4 C4         -9.1670   -0.2265   53.7976 C.2     1  ZINC000583220082    0.5100
      5 O5         -8.1317   -0.0868   54.4137 O.2     1  ZINC000583220082   -0.5300
      6 C6         -9.2278    0.1320   52.3351 C.3     1  ZINC000583220082   -0.1000
      7 C7         -7.8734    0.6095   51.8782 C.ar    1  ZINC000583220082   -0.0800
      8 C8         -7.5483    1.9506   51.9685 C.ar    1  ZINC000583220082   -0.0800
      9 C9         -6.3081    2.3917   51.5507 C.ar    1  ZINC000583220082   -0.1400
     10 C10        -5.3865    1.4862   51.0398 C.ar    1  ZINC000583220082    0.1400
     11 N11        -4.1306    1.9290   50.6166 N.am    1  ZINC000583220082   -0.6400
     12 C12        -4.0330    2.7992   49.5921 C.2     1  ZINC000583220082    0.5100
     13 O13        -5.0359    3.1986   49.0372 O.2     1  ZINC000583220082   -0.4900
     14 C14        -2.6905    3.2725   49.1397 C.2     1  ZINC000583220082    0.5100
     15 O15        -2.3551    4.4225   49.3342 O.2     1  ZINC000583220082   -0.5100
     16 N16        -1.8514    2.4223   48.5155 N.am    1  ZINC000583220082   -0.5800
     17 C17        -2.2403    1.0262   48.2644 C.3     1  ZINC000583220082    0.0600
     18 C18        -2.0021    0.7135   46.7833 C.3     1  ZINC000583220082    0.0300
     19 N19        -0.6143    1.0443   46.4332 N.3     1  ZINC000583220082   -0.4300
     20 C20        -0.3139    0.6264   45.1499 C.2     1  ZINC000583220082    0.2900
     21 N21         0.8561    0.6680   44.5481 N.2     1  ZINC000583220082   -0.5700
     22 C22         0.9051    0.2102   43.3142 C.2     1  ZINC000583220082    0.5400
     23 N23         2.0972    0.2104   42.5911 N.pl3   1  ZINC000583220082   -0.8200
     24 N24        -0.2027   -0.2443   42.7918 N.2     1  ZINC000583220082   -0.5500
     25 S25        -1.3883   -0.0681   43.9962 S.3     1  ZINC000583220082    0.2000
     26 C26        -0.3522    2.4808   46.5940 C.3     1  ZINC000583220082    0.0500
     27 C27        -0.5251    2.8676   48.0619 C.3     1  ZINC000583220082    0.1100
     28 C28        -5.7164    0.1396   50.9509 C.ar    1  ZINC000583220082   -0.1200
     29 C29        -6.9566   -0.2952   51.3750 C.ar    1  ZINC000583220082   -0.0800
     30 H30       -12.0998    0.0476   53.7404 H       1  ZINC000583220082    0.0500
     31 H31       -11.2898   -1.0859   52.6325 H       1  ZINC000583220082    0.0800
     32 H32       -12.0837   -1.6947   54.1048 H       1  ZINC000583220082    0.0700
     33 H33       -11.1780   -1.4168   56.1677 H       1  ZINC000583220082    0.0800
     34 H34        -9.4557   -1.8311   55.9934 H       1  ZINC000583220082    0.0600
     35 H35        -9.9327   -0.1708   56.4226 H       1  ZINC000583220082    0.0600
     36 H36        -9.5174   -0.7458   51.7576 H       1  ZINC000583220082    0.1000
     37 H37        -9.9618    0.9238   52.1853 H       1  ZINC000583220082    0.1000
     38 H38        -8.2651    2.6539   52.3659 H       1  ZINC000583220082    0.1300
     39 H39        -6.0550    3.4392   51.6209 H       1  ZINC000583220082    0.1300
     40 H40        -3.3291    1.6099   51.0600 H       1  ZINC000583220082    0.4200
     41 H41        -1.6355    0.3611   48.8809 H       1  ZINC000583220082    0.0900
     42 H42        -3.2955    0.8916   48.5019 H       1  ZINC000583220082    0.1700
     43 H43        -2.1801   -0.3466   46.6021 H       1  ZINC000583220082    0.1100
     44 H44        -2.6825    1.3065   46.1723 H       1  ZINC000583220082    0.0700
     45 H45         2.9412    0.3519   43.0476 H       1  ZINC000583220082    0.4200
     46 H46         2.0824    0.0689   41.6316 H       1  ZINC000583220082    0.4200
     47 H47         0.6665    2.7024   46.2757 H       1  ZINC000583220082    0.1100
     48 H48        -1.0556    3.0491   45.9857 H       1  ZINC000583220082    0.0600
     49 H49        -0.4444    3.9494   48.1674 H       1  ZINC000583220082    0.1100
     50 H50         0.2432    2.3800   48.6620 H       1  ZINC000583220082    0.0900
     51 H51        -5.0023   -0.5669   50.5542 H       1  ZINC000583220082    0.1400
     52 H52        -7.2137   -1.3419   51.3062 H       1  ZINC000583220082    0.1300
@<TRIPOS>BOND
     1     1     2    1
     2     1    30    1
     3     1    31    1
     4     1    32    1
     5     2     3    1
     6     2     4   am
     7     3    33    1
     8     3    34    1
     9     3    35    1
    10     4     5    2
    11     4     6    1
    12     6     7    1
    13     6    36    1
    14     6    37    1
    15     7    29   ar
    16     7     8   ar
    17     8     9   ar
    18     8    38    1
    19     9    10   ar
    20     9    39    1
    21    10    11    1
    22    10    28   ar
    23    11    12   am
    24    11    40    1
    25    12    13    2
    26    12    14    1
    27    14    15    2
    28    14    16   am
    29    16    27    1
    30    16    17    1
    31    17    18    1
    32    17    41    1
    33    17    42    1
    34    18    19    1
    35    18    43    1
    36    18    44    1
    37    19    20    1
    38    19    26    1
    39    20    25    1
    40    20    21    2
    41    21    22    1
    42    22    23    1
    43    22    24    2
    44    23    45    1
    45    23    46    1
    46    24    25    1
    47    26    27    1
    48    26    47    1
    49    26    48    1
    50    27    49    1
    51    27    50    1
    52    28    29   ar
    53    28    51    1
    54    29    52    1
@<TRIPOS>SUBSTRUCTURE
     1 ZINC000583220082        1 TEMP              0 ****  ****    0 ROOT


##########                                Name:    ZINC000482540246
##########                DOCK_Rotatable_Bonds:                  10
##########                         Heavy_Atoms:                  30
##########                    Molecular_Weight:              409.46
##########                DOCK_Rotatable_Bonds:                  10
##########                       Formal_Charge:         2.83122e-07
##########                     HBond_Acceptors:                   7
##########                        HBond_Donors:                   2
##########                         Heavy_Atoms:                  30
##########                          Grid_Score:          -35.149002
##########                     Grid_vdw_energy:          -33.578728
##########                      Grid_es_energy:           -1.570274
##########           Internal_energy_repulsive:           10.482469

@<TRIPOS>MOLECULE
ZINC000482540246
 54 56 1 0 0
SMALL
USER_CHARGES


@<TRIPOS>ATOM
      1 C1         -9.8614   -0.9871   54.0546 C.3     1  ZINC000482540246    0.0400
      2 O2         -9.2670   -0.3572   52.9179 O.3     1  ZINC000482540246   -0.3100
      3 C3         -8.2606    0.5209   53.1565 C.ar    1  ZINC000482540246    0.3300
      4 C4         -7.6428    1.1646   52.0922 C.ar    1  ZINC000482540246   -0.1800
      5 C5         -6.6174    2.0582   52.3491 C.ar    1  ZINC000482540246   -0.0100
      6 C6         -5.9216    2.7775   51.2223 C.3     1  ZINC000482540246    0.2000
      7 H7         -5.3131    3.5856   51.6280 H       1  ZINC000482540246    0.1000
      8 C8         -6.9656    3.3563   50.2651 C.3     1  ZINC000482540246   -0.1600
      9 N9         -5.0638    1.8363   50.4981 N.am    1  ZINC000482540246   -0.7400
     10 C10        -3.9791    2.2854   49.8362 C.2     1  ZINC000482540246    0.7100
     11 O11        -3.7133    3.4719   49.8387 O.2     1  ZINC000482540246   -0.5800
     12 N12        -3.1889    1.4193   49.1713 N.am    1  ZINC000482540246   -0.7400
     13 C13        -2.0089    1.9073   48.4532 C.3     1  ZINC000482540246    0.2100
     14 H14        -2.2468    2.8506   47.9618 H       1  ZINC000482540246    0.1200
     15 C15        -1.5886    0.8769   47.4032 C.3     1  ZINC000482540246    0.0500
     16 O16        -1.7693    1.4271   46.0968 O.3     1  ZINC000482540246   -0.3000
     17 C17        -0.8885    1.0394   45.1365 C.ar    1  ZINC000482540246    0.1000
     18 C18        -1.2660    0.1054   44.1843 C.ar    1  ZINC000482540246   -0.1800
     19 C19        -0.3691   -0.2870   43.2085 C.ar    1  ZINC000482540246   -0.0900
     20 C20         0.9040    0.2506   43.1806 C.ar    1  ZINC000482540246   -0.1300
     21 C21         1.2848    1.1825   44.1290 C.ar    1  ZINC000482540246   -0.1200
     22 C22         0.3898    1.5830   45.1041 C.ar    1  ZINC000482540246    0.0700
     23 F23         0.7615    2.4932   46.0307 F       1  ZINC000482540246   -0.1300
     24 C24        -0.8797    2.1198   49.4284 C.ar    1  ZINC000482540246   -0.1000
     25 C25        -0.5281    1.1136   50.3087 C.ar    1  ZINC000482540246   -0.0800
     26 C26         0.5076    1.3086   51.2032 C.ar    1  ZINC000482540246   -0.1200
     27 C27         1.1921    2.5095   51.2172 C.ar    1  ZINC000482540246   -0.1200
     28 C28         0.8411    3.5153   50.3363 C.ar    1  ZINC000482540246   -0.1200
     29 C29        -0.1919    3.3188   49.4388 C.ar    1  ZINC000482540246   -0.1000
     30 C30        -6.2449    2.2769   53.6679 C.ar    1  ZINC000482540246   -0.2100
     31 C31        -6.9032    1.6017   54.6768 C.ar    1  ZINC000482540246    0.1500
     32 N32        -7.8808    0.7598   54.4009 N.ar    1  ZINC000482540246   -0.5400
     33 H33       -10.6502   -1.6630   53.7243 H       1  ZINC000482540246    0.1000
     34 H34        -9.1020   -1.5518   54.5956 H       1  ZINC000482540246    0.0600
     35 H35       -10.2853   -0.2270   54.7109 H       1  ZINC000482540246    0.0600
     36 H36        -7.9580    0.9704   51.0777 H       1  ZINC000482540246    0.1500
     37 H37        -7.5741    2.5481   49.8595 H       1  ZINC000482540246    0.0600
     38 H38        -7.6038    4.0565   50.8039 H       1  ZINC000482540246    0.0700
     39 H39        -6.4624    3.8765   49.4501 H       1  ZINC000482540246    0.0700
     40 H40        -5.2764    0.8899   50.4951 H       1  ZINC000482540246    0.4000
     41 H41        -3.4015    0.4729   49.1683 H       1  ZINC000482540246    0.4000
     42 H42        -0.5393    0.6190   47.5469 H       1  ZINC000482540246    0.0800
     43 H43        -2.2006   -0.0189   47.5079 H       1  ZINC000482540246    0.0800
     44 H44        -2.2603   -0.3158   44.2051 H       1  ZINC000482540246    0.1400
     45 H45        -0.6633   -1.0150   42.4670 H       1  ZINC000482540246    0.1300
     46 H46         1.6026   -0.0579   42.4171 H       1  ZINC000482540246    0.1400
     47 H47         2.2803    1.6007   44.1053 H       1  ZINC000482540246    0.1400
     48 H48        -1.0628    0.1753   50.2977 H       1  ZINC000482540246    0.1200
     49 H49         0.7818    0.5227   51.8915 H       1  ZINC000482540246    0.1200
     50 H50         2.0008    2.6620   51.9165 H       1  ZINC000482540246    0.1200
     51 H51         1.3755    4.4537   50.3474 H       1  ZINC000482540246    0.1200
     52 H52        -0.4661    4.1047   48.7506 H       1  ZINC000482540246    0.1200
     53 H53        -5.4484    2.9675   53.9028 H       1  ZINC000482540246    0.1400
     54 H54        -6.6172    1.7684   55.7048 H       1  ZINC000482540246    0.1600
@<TRIPOS>BOND
     1     1     2    1
     2     1    33    1
     3     1    34    1
     4     1    35    1
     5     2     3    1
     6     3    32   ar
     7     3     4   ar
     8     4     5   ar
     9     4    36    1
    10     5     6    1
    11     5    30   ar
    12     6     7    1
    13     6     8    1
    14     6     9    1
    15     8    37    1
    16     8    38    1
    17     8    39    1
    18     9    10   am
    19     9    40    1
    20    10    11    2
    21    10    12   am
    22    12    13    1
    23    12    41    1
    24    13    14    1
    25    13    15    1
    26    13    24    1
    27    15    16    1
    28    15    42    1
    29    15    43    1
    30    16    17    1
    31    17    22   ar
    32    17    18   ar
    33    18    19   ar
    34    18    44    1
    35    19    20   ar
    36    19    45    1
    37    20    21   ar
    38    20    46    1
    39    21    22   ar
    40    21    47    1
    41    22    23    1
    42    24    29   ar
    43    24    25   ar
    44    25    26   ar
    45    25    48    1
    46    26    27   ar
    47    26    49    1
    48    27    28   ar
    49    27    50    1
    50    28    29   ar
    51    28    51    1
    52    29    52    1
    53    30    31   ar
    54    30    53    1
    55    31    32   ar
    56    31    54    1
@<TRIPOS>SUBSTRUCTURE
     1 ZINC000482540246        1 TEMP              0 ****  ****    0 ROOT


##########                                Name:    ZINC000572257265
##########                DOCK_Rotatable_Bonds:                  11
##########                         Heavy_Atoms:                  24
##########                    Molecular_Weight:             393.509
##########                DOCK_Rotatable_Bonds:                  11
##########                       Formal_Charge:          -0.0100002
##########                     HBond_Acceptors:                  11
##########                        HBond_Donors:                   3
##########                         Heavy_Atoms:                  24
##########                          Grid_Score:          -35.136185
##########                     Grid_vdw_energy:          -33.596767
##########                      Grid_es_energy:           -1.539417
##########           Internal_energy_repulsive:            9.372246

@<TRIPOS>MOLECULE
ZINC000572257265
 43 43 1 0 0
SMALL
USER_CHARGES


@<TRIPOS>ATOM
      1 C1        -10.0681   -2.0331   55.7872 C.3     1  ZINC000572257265   -0.1300
      2 S2        -11.8578   -1.8263   55.9989 S.3     1  ZINC000572257265   -0.2200
      3 C3        -12.3739   -3.4219   56.6904 C.3     1  ZINC000572257265   -0.1300
      4 C4        -13.8961   -3.4432   56.8430 C.3     1  ZINC000572257265    0.1500
      5 C5        -14.5470   -3.0263   55.5225 C.3     1  ZINC000572257265   -0.1500
      6 O6        -14.3217   -4.7630   57.1879 O.3     1  ZINC000572257265   -0.5400
      7 C7        -14.3118   -2.4684   57.9466 C.3     1  ZINC000572257265    0.0900
      8 N8        -14.5746   -3.2118   59.1812 N.am    1  ZINC000572257265   -1.1100
      9 S9        -14.5219   -2.4349   60.6427 S.o2    1  ZINC000572257265    2.6900
     10 O10       -15.3941   -1.3182   60.5352 O.2     1  ZINC000572257265   -0.9400
     11 O11       -14.6652   -3.4401   61.6369 O.2     1  ZINC000572257265   -0.9500
     12 C12       -12.8964   -1.7807   60.8272 C.ar    1  ZINC000572257265   -0.6300
     13 C13       -11.7974   -2.6016   60.6568 C.ar    1  ZINC000572257265   -0.0400
     14 C14       -10.5220   -2.0884   60.8016 C.ar    1  ZINC000572257265   -0.0400
     15 C15       -10.3457   -0.7539   61.1165 C.ar    1  ZINC000572257265   -0.6300
     16 S16        -8.7201   -0.0999   61.3017 S.o2    1  ZINC000572257265    2.7000
     17 O17        -7.8774   -0.8752   60.4601 O.2     1  ZINC000572257265   -0.9400
     18 O18        -8.8407    1.3118   61.1927 O.2     1  ZINC000572257265   -0.9400
     19 N19        -8.2412   -0.4098   62.8563 N.am    1  ZINC000572257265   -1.1200
     20 C20        -9.0087    0.1310   63.9808 C.3     1  ZINC000572257265    0.2200
     21 C21        -8.5432   -0.4852   65.2341 C.1     1  ZINC000572257265    0.1900
     22 N22        -8.1841   -0.9607   66.2012 N.1     1  ZINC000572257265   -0.3900
     23 C23       -11.4446    0.0674   61.2857 C.ar    1  ZINC000572257265   -0.0400
     24 C24       -12.7199   -0.4451   61.1371 C.ar    1  ZINC000572257265   -0.0400
     25 H25        -9.8761   -2.8651   55.1097 H       1  ZINC000572257265    0.0800
     26 H26        -9.6436   -1.1197   55.3704 H       1  ZINC000572257265    0.1000
     27 H27        -9.6091   -2.2387   56.7543 H       1  ZINC000572257265    0.0800
     28 H28       -12.0645   -4.2249   56.0215 H       1  ZINC000572257265    0.0900
     29 H29       -11.9090   -3.5624   57.6662 H       1  ZINC000572257265    0.0900
     30 H30       -14.2508   -3.7208   54.7363 H       1  ZINC000572257265    0.0800
     31 H31       -15.6315   -3.0415   55.6312 H       1  ZINC000572257265    0.0700
     32 H32       -14.2223   -2.0196   55.2593 H       1  ZINC000572257265    0.0800
     33 H33       -13.9989   -5.4497   56.5886 H       1  ZINC000572257265    0.3800
     34 H34       -13.5098   -1.7506   58.1183 H       1  ZINC000572257265    0.0900
     35 H35       -15.2145   -1.9387   57.6423 H       1  ZINC000572257265    0.0800
     36 H36       -14.7794   -4.1592   59.1427 H       1  ZINC000572257265    0.4300
     37 H37       -11.9351   -3.6442   60.4108 H       1  ZINC000572257265    0.1500
     38 H38        -9.6635   -2.7300   60.6692 H       1  ZINC000572257265    0.1500
     39 H39        -7.4525   -0.9496   63.0223 H       1  ZINC000572257265    0.4300
     40 H40        -8.8664    1.2105   64.0320 H       1  ZINC000572257265    0.1100
     41 H41       -10.0665   -0.0897   63.8384 H       1  ZINC000572257265    0.1300
     42 H42       -11.3068    1.1100   61.5312 H       1  ZINC000572257265    0.1600
     43 H43       -13.5785    0.1967   61.2692 H       1  ZINC000572257265    0.1500
@<TRIPOS>BOND
     1     1     2    1
     2     1    25    1
     3     1    26    1
     4     1    27    1
     5     2     3    1
     6     3     4    1
     7     3    28    1
     8     3    29    1
     9     4     5    1
    10     4     6    1
    11     4     7    1
    12     5    30    1
    13     5    31    1
    14     5    32    1
    15     6    33    1
    16     7     8    1
    17     7    34    1
    18     7    35    1
    19     8     9   am
    20     8    36    1
    21     9    10    2
    22     9    11    2
    23     9    12    1
    24    12    24   ar
    25    12    13   ar
    26    13    14   ar
    27    13    37    1
    28    14    15   ar
    29    14    38    1
    30    15    16    1
    31    15    23   ar
    32    16    17    2
    33    16    18    2
    34    16    19   am
    35    19    20    1
    36    19    39    1
    37    20    21    1
    38    20    40    1
    39    20    41    1
    40    21    22    3
    41    23    24   ar
    42    23    42    1
    43    24    43    1
@<TRIPOS>SUBSTRUCTURE
     1 ZINC000572257265        1 TEMP              0 ****  ****    0 ROOT


##########                                Name:    ZINC000642096826
##########                DOCK_Rotatable_Bonds:                  12
##########                         Heavy_Atoms:                  25
##########                    Molecular_Weight:             345.485
##########                DOCK_Rotatable_Bonds:                  12
##########                       Formal_Charge:          0.00999919
##########                     HBond_Acceptors:                   5
##########                        HBond_Donors:                   1
##########                         Heavy_Atoms:                  25
##########                          Grid_Score:          -35.056808
##########                     Grid_vdw_energy:          -34.095482
##########                      Grid_es_energy:           -0.961327
##########           Internal_energy_repulsive:           16.085526

@<TRIPOS>MOLECULE
ZINC000642096826
 56 57 1 0 0
SMALL
USER_CHARGES


@<TRIPOS>ATOM
      1 C1          1.3034    1.1980   50.8538 C.3     1  ZINC000642096826   -0.1500
      2 C2          0.1626    1.9624   50.1789 C.3     1  ZINC000642096826   -0.1400
      3 C3         -0.7183    0.9823   49.4015 C.3     1  ZINC000642096826    0.1200
      4 N4         -1.8724    1.6956   48.8489 N.am    1  ZINC000642096826   -0.6200
      5 C5         -1.8240    2.2189   47.4814 C.3     1  ZINC000642096826    0.1100
      6 C6         -1.1150    1.2111   46.5744 C.3     1  ZINC000642096826   -0.1400
      7 C7         -1.3901    1.5608   45.1106 C.3     1  ZINC000642096826   -0.1500
      8 C8         -2.9787    1.8703   49.5985 C.2     1  ZINC000642096826    0.5200
      9 O9         -3.0182    1.4384   50.7311 O.2     1  ZINC000642096826   -0.5200
     10 C10        -4.1666    2.6026   49.0294 C.3     1  ZINC000642096826    0.0400
     11 N11        -5.2025    2.7330   50.0628 N.3     1  ZINC000642096826   -0.5200
     12 C12        -5.4790    4.1458   50.3555 C.3     1  ZINC000642096826    0.0100
     13 C13        -6.4293    2.0268   49.6705 C.3     1  ZINC000642096826    0.0900
     14 C14        -7.0355    1.3631   50.8801 C.ar    1  ZINC000642096826   -0.0500
     15 C15        -8.0328    2.0063   51.5914 C.ar    1  ZINC000642096826   -0.1000
     16 C16        -8.5915    1.4045   52.6999 C.ar    1  ZINC000642096826   -0.0600
     17 C17        -8.1488    0.1437   53.1032 C.ar    1  ZINC000642096826   -0.1400
     18 C18        -8.7434   -0.5074   54.2899 C.2     1  ZINC000642096826    0.5600
     19 O19        -8.2378   -0.3540   55.3846 O.2     1  ZINC000642096826   -0.5300
     20 N20        -9.8461   -1.2710   54.1580 N.am    1  ZINC000642096826   -0.7000
     21 C21       -10.4343   -1.9176   55.3337 C.3     1  ZINC000642096826    0.0800
     22 C22       -10.9995   -1.0116   56.4295 C.3     1  ZINC000642096826   -0.1900
     23 C23       -11.9480   -1.7980   55.5224 C.3     1  ZINC000642096826   -0.1900
     24 C24        -7.1426   -0.4999   52.3811 C.ar    1  ZINC000642096826   -0.0900
     25 C25        -6.5960    0.1108   51.2713 C.ar    1  ZINC000642096826   -0.1200
     26 H26         0.8896    0.4587   51.5396 H       1  ZINC000642096826    0.0600
     27 H27         1.9022    0.6945   50.0949 H       1  ZINC000642096826    0.0600
     28 H28         1.9309    1.8962   51.4076 H       1  ZINC000642096826    0.0600
     29 H29        -0.4362    2.4659   50.9378 H       1  ZINC000642096826    0.0600
     30 H30         0.5764    2.7017   49.4931 H       1  ZINC000642096826    0.0600
     31 H31        -0.1410    0.5407   48.5892 H       1  ZINC000642096826    0.0800
     32 H32        -1.0643    0.1950   50.0712 H       1  ZINC000642096826    0.0800
     33 H33        -2.8388    2.3828   47.1190 H       1  ZINC000642096826    0.0800
     34 H34        -1.2782    3.1624   47.4726 H       1  ZINC000642096826    0.0800
     35 H35        -0.0418    1.2467   46.7610 H       1  ZINC000642096826    0.0700
     36 H36        -1.4873    0.2085   46.7845 H       1  ZINC000642096826    0.0700
     37 H37        -0.8850    0.8428   44.4644 H       1  ZINC000642096826    0.0600
     38 H38        -2.4635    1.5252   44.9240 H       1  ZINC000642096826    0.0600
     39 H39        -1.0178    2.5635   44.9004 H       1  ZINC000642096826    0.0600
     40 H40        -3.8576    3.5937   48.6975 H       1  ZINC000642096826    0.0600
     41 H41        -4.5662    2.0441   48.1830 H       1  ZINC000642096826    0.1000
     42 H42        -5.8245    4.6437   49.4495 H       1  ZINC000642096826    0.0200
     43 H43        -6.2493    4.2136   51.1237 H       1  ZINC000642096826    0.0700
     44 H44        -4.5684    4.6283   50.7106 H       1  ZINC000642096826    0.0900
     45 H45        -7.1406    2.7390   49.2522 H       1  ZINC000642096826    0.0500
     46 H46        -6.1900    1.2706   48.9229 H       1  ZINC000642096826    0.0900
     47 H47        -8.3745    2.9818   51.2783 H       1  ZINC000642096826    0.1300
     48 H48        -9.3695    1.9079   53.2547 H       1  ZINC000642096826    0.1400
     49 H49       -10.2503   -1.3924   53.2846 H       1  ZINC000642096826    0.4000
     50 H50        -9.9605   -2.8486   55.6446 H       1  ZINC000642096826    0.1400
     51 H51       -10.8972   -1.3464   57.4617 H       1  ZINC000642096826    0.1000
     52 H52       -10.9335    0.0655   56.2758 H       1  ZINC000642096826    0.1000
     53 H53       -12.5061   -1.2381   54.7718 H       1  ZINC000642096826    0.1000
     54 H54       -12.4698   -2.6502   55.9578 H       1  ZINC000642096826    0.1100
     55 H55        -6.7955   -1.4754   52.6881 H       1  ZINC000642096826    0.1200
     56 H56        -5.8177   -0.3863   50.7114 H       1  ZINC000642096826    0.1300
@<TRIPOS>BOND
     1     1     2    1
     2     1    26    1
     3     1    27    1
     4     1    28    1
     5     2     3    1
     6     2    29    1
     7     2    30    1
     8     3     4    1
     9     3    31    1
    10     3    32    1
    11     4     5    1
    12     4     8   am
    13     5     6    1
    14     5    33    1
    15     5    34    1
    16     6     7    1
    17     6    35    1
    18     6    36    1
    19     7    37    1
    20     7    38    1
    21     7    39    1
    22     8     9    2
    23     8    10    1
    24    10    11    1
    25    10    40    1
    26    10    41    1
    27    11    12    1
    28    11    13    1
    29    12    42    1
    30    12    43    1
    31    12    44    1
    32    13    14    1
    33    13    45    1
    34    13    46    1
    35    14    25   ar
    36    14    15   ar
    37    15    16   ar
    38    15    47    1
    39    16    17   ar
    40    16    48    1
    41    17    18    1
    42    17    24   ar
    43    18    19    2
    44    18    20   am
    45    20    21    1
    46    20    49    1
    47    21    23    1
    48    21    22    1
    49    21    50    1
    50    22    23    1
    51    22    51    1
    52    22    52    1
    53    23    53    1
    54    23    54    1
    55    24    25   ar
    56    24    55    1
    57    25    56    1
@<TRIPOS>SUBSTRUCTURE
     1 ZINC000642096826        1 TEMP              0 ****  ****    0 ROOT


##########                                Name:    ZINC001596273020
##########                DOCK_Rotatable_Bonds:                  11
##########                         Heavy_Atoms:                  25
##########                    Molecular_Weight:             355.478
##########                DOCK_Rotatable_Bonds:                  11
##########                       Formal_Charge:          -0.0499996
##########                     HBond_Acceptors:                   7
##########                        HBond_Donors:                   2
##########                         Heavy_Atoms:                  25
##########                          Grid_Score:          -34.846504
##########                     Grid_vdw_energy:          -33.432358
##########                      Grid_es_energy:           -1.414145
##########           Internal_energy_repulsive:           24.481831

@<TRIPOS>MOLECULE
ZINC001596273020
 58 59 1 0 0
SMALL
USER_CHARGES


@<TRIPOS>ATOM
      1 C1         -5.5616    4.0222   50.1428 C.3     1  ZINC001596273020   -0.1900
      2 C2         -5.6982    2.7178   49.3550 C.3     1  ZINC001596273020   -0.0200
      3 N3         -5.8727    1.5975   50.2892 N.4     1  ZINC001596273020   -0.3900
      4 H4         -5.9628    0.7373   49.7696 H       1  ZINC001596273020    0.4300
      5 C5         -4.7051    1.5135   51.1766 C.3     1  ZINC001596273020   -0.0100
      6 C6         -3.4442    1.2871   50.3403 C.3     1  ZINC001596273020   -0.1900
      7 C7         -7.0837    1.8136   51.0921 C.3     1  ZINC001596273020   -0.0100
      8 C8         -7.3966    0.5486   51.8939 C.3     1  ZINC001596273020    0.0300
      9 O9         -8.6842    0.6756   52.5005 O.3     1  ZINC001596273020   -0.3900
     10 C10        -9.0529   -0.4358   53.3197 C.3     1  ZINC001596273020    0.0500
     11 C11       -10.4617   -0.2154   53.8743 C.3     1  ZINC001596273020    0.1400
     12 N12       -10.8537   -1.3709   54.6850 N.am    1  ZINC001596273020   -0.7500
     13 C13       -11.9825   -1.3266   55.4201 C.2     1  ZINC001596273020    0.7200
     14 O14       -12.6747   -0.3270   55.4115 O.2     1  ZINC001596273020   -0.6000
     15 N15       -12.3440   -2.3903   56.1646 N.am    1  ZINC001596273020   -0.6300
     16 C16       -11.6311   -3.6836   56.3084 C.3     1  ZINC001596273020    0.1100
     17 C17       -11.7557   -4.0023   57.8263 C.3     1  ZINC001596273020   -0.0800
     18 H18       -11.8135   -5.0810   57.9722 H       1  ZINC001596273020    0.1200
     19 C19       -10.5165   -3.4594   58.5095 C.3     1  ZINC001596273020   -0.1000
     20 C20       -10.7709   -3.0407   59.9507 C.3     1  ZINC001596273020   -0.1200
     21 C21       -11.8676   -1.9675   59.9477 C.3     1  ZINC001596273020   -0.1200
     22 C22       -13.1705   -2.6406   59.5282 C.3     1  ZINC001596273020   -0.0800
     23 C23       -13.0669   -3.3621   58.2258 C.3     1  ZINC001596273020   -0.1400
     24 C24       -14.0551   -4.4969   58.3069 C.2     1  ZINC001596273020    0.5000
     25 O25       -14.9223   -4.4900   59.1638 O.co2   1  ZINC001596273020   -0.6900
     26 O26       -13.9873   -5.4221   57.5156 O.co2   1  ZINC001596273020   -0.6900
     27 C27       -13.5408   -2.5294   57.0297 C.3     1  ZINC001596273020    0.1600
     28 H28        -6.5011    4.2399   50.6507 H       1  ZINC001596273020    0.0800
     29 H29        -4.7653    3.9198   50.8800 H       1  ZINC001596273020    0.0800
     30 H30        -5.3212    4.8362   49.4589 H       1  ZINC001596273020    0.1000
     31 H31        -6.5645    2.7800   48.6964 H       1  ZINC001596273020    0.1300
     32 H32        -4.7996    2.5574   48.7593 H       1  ZINC001596273020    0.1300
     33 H33        -4.6072    2.4430   51.7374 H       1  ZINC001596273020    0.1300
     34 H34        -4.8351    0.6827   51.8703 H       1  ZINC001596273020    0.1300
     35 H35        -3.4937    0.3067   49.8663 H       1  ZINC001596273020    0.0800
     36 H36        -3.3736    2.0583   49.5733 H       1  ZINC001596273020    0.0800
     37 H37        -2.5669    1.3348   50.9855 H       1  ZINC001596273020    0.1000
     38 H38        -6.9222    2.6467   51.7762 H       1  ZINC001596273020    0.1400
     39 H39        -7.9210    2.0421   50.4326 H       1  ZINC001596273020    0.1400
     40 H40        -7.3923   -0.3141   51.2278 H       1  ZINC001596273020    0.1000
     41 H41        -6.6418    0.4134   52.6685 H       1  ZINC001596273020    0.0700
     42 H42        -9.0358   -1.3481   52.7234 H       1  ZINC001596273020    0.0700
     43 H43        -8.3476   -0.5282   54.1456 H       1  ZINC001596273020    0.0700
     44 H44       -10.4725    0.6825   54.4921 H       1  ZINC001596273020    0.0900
     45 H45       -11.1628   -0.0964   53.0482 H       1  ZINC001596273020    0.0700
     46 H46       -10.3010   -2.1680   54.6926 H       1  ZINC001596273020    0.3900
     47 H47       -12.1160   -4.4572   55.7130 H       1  ZINC001596273020    0.0700
     48 H48       -10.5843   -3.5784   56.0233 H       1  ZINC001596273020    0.0600
     49 H49        -9.7437   -4.2280   58.4980 H       1  ZINC001596273020    0.0500
     50 H50       -10.1576   -2.5951   57.9507 H       1  ZINC001596273020    0.0400
     51 H51       -11.1002   -3.9022   60.5318 H       1  ZINC001596273020    0.0700
     52 H52        -9.8571   -2.6323   60.3823 H       1  ZINC001596273020    0.0500
     53 H53       -11.9745   -1.5453   60.9469 H       1  ZINC001596273020    0.0600
     54 H54       -11.6128   -1.1805   59.2380 H       1  ZINC001596273020    0.0500
     55 H55       -13.4618   -3.3516   60.3014 H       1  ZINC001596273020    0.0600
     56 H56       -13.9466   -1.8797   59.4458 H       1  ZINC001596273020    0.0600
     57 H57       -13.8897   -1.5517   57.3619 H       1  ZINC001596273020    0.0700
     58 H58       -14.3309   -3.0530   56.4915 H       1  ZINC001596273020    0.0700
@<TRIPOS>BOND
     1     1     2    1
     2     1    28    1
     3     1    29    1
     4     1    30    1
     5     2     3    1
     6     2    31    1
     7     2    32    1
     8     3     4    1
     9     3     5    1
    10     3     7    1
    11     5     6    1
    12     5    33    1
    13     5    34    1
    14     6    35    1
    15     6    36    1
    16     6    37    1
    17     7     8    1
    18     7    38    1
    19     7    39    1
    20     8     9    1
    21     8    40    1
    22     8    41    1
    23     9    10    1
    24    10    11    1
    25    10    42    1
    26    10    43    1
    27    11    12    1
    28    11    44    1
    29    11    45    1
    30    12    13   am
    31    12    46    1
    32    13    14    2
    33    13    15   am
    34    15    27    1
    35    15    16    1
    36    16    17    1
    37    16    47    1
    38    16    48    1
    39    17    18    1
    40    17    23    1
    41    17    19    1
    42    19    20    1
    43    19    49    1
    44    19    50    1
    45    20    21    1
    46    20    51    1
    47    20    52    1
    48    21    22    1
    49    21    53    1
    50    21    54    1
    51    22    23    1
    52    22    55    1
    53    22    56    1
    54    23    24    1
    55    23    27    1
    56    24    25   ar
    57    24    26   ar
    58    27    57    1
    59    27    58    1
@<TRIPOS>SUBSTRUCTURE
     1 ZINC001596273020        1 TEMP              0 ****  ****    0 ROOT


##########                                Name:    ZINC000848949366
##########                DOCK_Rotatable_Bonds:                   8
##########                         Heavy_Atoms:                  25
##########                    Molecular_Weight:             368.773
##########                DOCK_Rotatable_Bonds:                   8
##########                       Formal_Charge:          0.00999947
##########                     HBond_Acceptors:                   9
##########                        HBond_Donors:                   3
##########                         Heavy_Atoms:                  25
##########                          Grid_Score:          -34.785240
##########                     Grid_vdw_energy:          -31.150023
##########                      Grid_es_energy:           -3.635219
##########           Internal_energy_repulsive:            8.953918

@<TRIPOS>MOLECULE
ZINC000848949366
 42 43 1 0 0
SMALL
USER_CHARGES


@<TRIPOS>ATOM
      1 C1        -10.4456   -0.9249   54.1167 C.3     1  ZINC000848949366   -0.1500
      2 C2        -10.2495   -1.6930   55.4254 C.3     1  ZINC000848949366    0.0600
      3 O3        -11.4786   -2.3186   55.7992 O.3     1  ZINC000848949366   -0.3500
      4 C4        -11.4069   -3.3199   56.7011 C.2     1  ZINC000848949366    0.5400
      5 O5        -10.4607   -4.0849   56.6869 O.2     1  ZINC000848949366   -0.4800
      6 C6        -12.4316   -3.4802   57.6630 C.2     1  ZINC000848949366   -0.2300
      7 C7        -12.2097   -3.2196   58.9694 C.2     1  ZINC000848949366    0.2000
      8 C8        -10.8475   -2.7498   59.4106 C.3     1  ZINC000848949366    0.1000
      9 O9        -10.8814   -2.4284   60.8262 O.3     1  ZINC000848949366   -0.3500
     10 C10       -11.0606   -1.1341   61.1555 C.2     1  ZINC000848949366    0.5100
     11 O11       -11.8614   -0.4563   60.5422 O.2     1  ZINC000848949366   -0.4800
     12 C12       -10.2858   -0.5406   62.2593 C.ar    1  ZINC000848949366   -0.1600
     13 C13       -10.9357    0.1748   63.2689 C.ar    1  ZINC000848949366   -0.0300
     14 C14       -10.2059    0.7273   64.2982 C.ar    1  ZINC000848949366   -0.1300
     15 C15        -8.8278    0.5774   64.3377 C.ar    1  ZINC000848949366    0.0200
     16 Cl16       -7.9203    1.2794   65.6405 Cl      1  ZINC000848949366   -0.0500
     17 C17        -8.1727   -0.1282   63.3457 C.ar    1  ZINC000848949366   -0.1500
     18 C18        -8.8924   -0.6955   62.3058 C.ar    1  ZINC000848949366    0.1900
     19 O19        -8.2511   -1.3881   61.3318 O.3     1  ZINC000848949366   -0.4700
     20 N20       -13.2000   -3.3743   59.8970 N.am    1  ZINC000848949366   -0.6400
     21 C21       -14.4388   -3.7859   59.5990 C.2     1  ZINC000848949366    0.7100
     22 O22       -15.2538   -3.8935   60.4944 O.2     1  ZINC000848949366   -0.5600
     23 N23       -14.8116   -4.0844   58.3387 N.am    1  ZINC000848949366   -0.7100
     24 C24       -13.8171   -3.9441   57.2618 C.3     1  ZINC000848949366    0.2000
     25 H25       -14.2140   -3.2435   56.5271 H       1  ZINC000848949366    0.0900
     26 C26       -13.6679   -5.3044   56.5775 C.3     1  ZINC000848949366   -0.1700
     27 H27        -9.5080   -0.4477   53.8315 H       1  ZINC000848949366    0.0800
     28 H28       -10.7548   -1.6161   53.3326 H       1  ZINC000848949366    0.0700
     29 H29       -11.2137   -0.1638   54.2538 H       1  ZINC000848949366    0.0700
     30 H30        -9.4814   -2.4542   55.2882 H       1  ZINC000848949366    0.0700
     31 H31        -9.9403   -1.0019   56.2095 H       1  ZINC000848949366    0.0700
     32 H32       -10.1164   -3.5389   59.2347 H       1  ZINC000848949366    0.1100
     33 H33       -10.5678   -1.8623   58.8431 H       1  ZINC000848949366    0.1000
     34 H34       -12.0087    0.2946   63.2418 H       1  ZINC000848949366    0.1500
     35 H35       -10.7091    1.2800   65.0777 H       1  ZINC000848949366    0.1500
     36 H36        -7.0992   -0.2408   63.3830 H       1  ZINC000848949366    0.1500
     37 H37        -7.2946   -1.4521   61.4593 H       1  ZINC000848949366    0.4000
     38 H38       -12.9943   -3.1750   60.8237 H       1  ZINC000848949366    0.4300
     39 H39       -15.7146   -4.3814   58.1453 H       1  ZINC000848949366    0.4400
     40 H40       -14.6291   -5.6111   56.1652 H       1  ZINC000848949366    0.0700
     41 H41       -12.9353   -5.2284   55.7739 H       1  ZINC000848949366    0.0700
     42 H42       -13.3327   -6.0428   57.3060 H       1  ZINC000848949366    0.0700
@<TRIPOS>BOND
     1     1     2    1
     2     1    27    1
     3     1    28    1
     4     1    29    1
     5     2     3    1
     6     2    30    1
     7     2    31    1
     8     3     4    1
     9     4     5    2
    10     4     6    1
    11     6    24    1
    12     6     7    2
    13     7     8    1
    14     7    20    1
    15     8     9    1
    16     8    32    1
    17     8    33    1
    18     9    10    1
    19    10    11    2
    20    10    12    1
    21    12    18   ar
    22    12    13   ar
    23    13    14   ar
    24    13    34    1
    25    14    15   ar
    26    14    35    1
    27    15    16    1
    28    15    17   ar
    29    17    18   ar
    30    17    36    1
    31    18    19    1
    32    19    37    1
    33    20    21   am
    34    20    38    1
    35    21    22    2
    36    21    23   am
    37    23    24    1
    38    23    39    1
    39    24    25    1
    40    24    26    1
    41    26    40    1
    42    26    41    1
    43    26    42    1
@<TRIPOS>SUBSTRUCTURE
     1 ZINC000848949366        1 TEMP              0 ****  ****    0 ROOT


##########                                Name:    ZINC000051488227
##########                DOCK_Rotatable_Bonds:                   8
##########                         Heavy_Atoms:                  30
##########                    Molecular_Weight:             403.478
##########                DOCK_Rotatable_Bonds:                   8
##########                       Formal_Charge:           0.0199996
##########                     HBond_Acceptors:                   5
##########                        HBond_Donors:                   0
##########                         Heavy_Atoms:                  30
##########                          Grid_Score:          -34.769958
##########                     Grid_vdw_energy:          -34.006157
##########                      Grid_es_energy:           -0.763801
##########           Internal_energy_repulsive:           25.115803

@<TRIPOS>MOLECULE
ZINC000051488227
 55 58 1 0 0
SMALL
USER_CHARGES


@<TRIPOS>ATOM
      1 O1        -10.1105   -2.5011   57.2314 O.2     1  ZINC000051488227   -0.5000
      2 C2        -10.7272   -1.5452   57.6388 C.2     1  ZINC000051488227    0.4800
      3 O3        -11.0476   -0.5465   56.8011 O.3     1  ZINC000051488227   -0.3400
      4 C4        -11.2016   -0.8870   55.3980 C.3     1  ZINC000051488227    0.1100
      5 C5         -9.9432   -0.5245   54.6522 C.ar    1  ZINC000051488227   -0.1400
      6 C6         -9.8081   -0.8666   53.3194 C.ar    1  ZINC000051488227   -0.0500
      7 C7         -8.6556   -0.5355   52.6334 C.ar    1  ZINC000051488227   -0.1500
      8 C8         -7.6334    0.1412   53.2830 C.ar    1  ZINC000051488227    0.1500
      9 O9         -6.4988    0.4685   52.6103 O.3     1  ZINC000051488227   -0.3100
     10 C10        -6.5678    0.4675   51.1830 C.3     1  ZINC000051488227    0.1100
     11 C11        -5.3639    1.1792   50.6214 C.ar    1  ZINC000051488227    0.1200
     12 C12        -5.4801    1.8925   49.4437 C.ar    1  ZINC000051488227   -0.1500
     13 C13        -4.3664    2.5441   48.9357 C.ar    1  ZINC000051488227   -0.0700
     14 C14        -3.1727    2.4532   49.6348 C.ar    1  ZINC000051488227   -0.1700
     15 C15        -3.1326    1.7211   50.8067 C.ar    1  ZINC000051488227    0.1100
     16 N16        -4.2131    1.1185   51.2627 N.ar    1  ZINC000051488227   -0.4800
     17 C17        -7.7717    0.4838   54.6202 C.ar    1  ZINC000051488227   -0.2100
     18 C18        -8.9281    0.1546   55.3003 C.ar    1  ZINC000051488227   -0.0500
     19 C19       -11.1420   -1.4772   59.0860 C.3     1  ZINC000051488227    0.0000
     20 C20       -12.4087   -2.2690   59.2850 C.ar    1  ZINC000051488227   -0.0900
     21 C21       -12.9532   -2.3955   60.5492 C.ar    1  ZINC000051488227   -0.1100
     22 C22       -14.1152   -3.1218   60.7318 C.ar    1  ZINC000051488227   -0.1200
     23 C23       -14.7328   -3.7211   59.6500 C.ar    1  ZINC000051488227   -0.1100
     24 C24       -14.1887   -3.5938   58.3857 C.ar    1  ZINC000051488227   -0.1200
     25 C25       -13.0292   -2.8639   58.2024 C.ar    1  ZINC000051488227   -0.1000
     26 C26       -10.0299   -2.0566   59.9656 C.3     1  ZINC000051488227   -0.1400
     27 C27        -8.7711   -1.1985   59.8146 C.3     1  ZINC000051488227    0.0600
     28 O28        -9.0720    0.1527   60.1690 O.3     1  ZINC000051488227   -0.3800
     29 C29       -10.0717    0.7621   59.3496 C.3     1  ZINC000051488227    0.0500
     30 C30       -11.3828   -0.0173   59.4820 C.3     1  ZINC000051488227   -0.1400
     31 H31       -11.3855   -1.9570   55.3017 H       1  ZINC000051488227    0.0800
     32 H32       -12.0433   -0.3345   54.9804 H       1  ZINC000051488227    0.0800
     33 H33       -10.6041   -1.3935   52.8142 H       1  ZINC000051488227    0.1300
     34 H34        -8.5502   -0.8036   51.5926 H       1  ZINC000051488227    0.1400
     35 H35        -6.5840   -0.5604   50.8207 H       1  ZINC000051488227    0.0900
     36 H36        -7.4749    0.9800   50.8627 H       1  ZINC000051488227    0.0900
     37 H37        -6.4262    1.9416   48.9251 H       1  ZINC000051488227    0.1400
     38 H38        -4.4274    3.1088   48.0171 H       1  ZINC000051488227    0.1400
     39 H39        -2.2853    2.9476   49.2682 H       1  ZINC000051488227    0.1400
     40 H40        -2.2065    1.6450   51.3570 H       1  ZINC000051488227    0.1600
     41 H41        -6.9772    1.0103   55.1281 H       1  ZINC000051488227    0.1300
     42 H42        -9.0364    0.4214   56.3413 H       1  ZINC000051488227    0.1300
     43 H43       -12.4707   -1.9273   61.3944 H       1  ZINC000051488227    0.1300
     44 H44       -14.5402   -3.2213   61.7196 H       1  ZINC000051488227    0.1300
     45 H45       -15.6403   -4.2892   59.7928 H       1  ZINC000051488227    0.1200
     46 H46       -14.6712   -4.0623   57.5405 H       1  ZINC000051488227    0.1200
     47 H47       -12.6042   -2.7645   57.2145 H       1  ZINC000051488227    0.1300
     48 H48       -10.3503   -2.0530   61.0075 H       1  ZINC000051488227    0.0900
     49 H49        -9.8137   -3.0784   59.6536 H       1  ZINC000051488227    0.0900
     50 H50        -7.9895   -1.5810   60.4709 H       1  ZINC000051488227    0.1000
     51 H51        -8.4280   -1.2353   58.7806 H       1  ZINC000051488227    0.0500
     52 H52       -10.2270    1.7920   59.6710 H       1  ZINC000051488227    0.1000
     53 H53        -9.7457    0.7510   58.3096 H       1  ZINC000051488227    0.0700
     54 H54       -12.1342    0.4194   58.8242 H       1  ZINC000051488227    0.0900
     55 H55       -11.7305    0.0275   60.5141 H       1  ZINC000051488227    0.0900
@<TRIPOS>BOND
     1     1     2    2
     2     2     3    1
     3     2    19    1
     4     3     4    1
     5     4     5    1
     6     4    31    1
     7     4    32    1
     8     5    18   ar
     9     5     6   ar
    10     6     7   ar
    11     6    33    1
    12     7     8   ar
    13     7    34    1
    14     8     9    1
    15     8    17   ar
    16     9    10    1
    17    10    11    1
    18    10    35    1
    19    10    36    1
    20    11    16   ar
    21    11    12   ar
    22    12    13   ar
    23    12    37    1
    24    13    14   ar
    25    13    38    1
    26    14    15   ar
    27    14    39    1
    28    15    16   ar
    29    15    40    1
    30    17    18   ar
    31    17    41    1
    32    18    42    1
    33    19    30    1
    34    19    20    1
    35    19    26    1
    36    20    25   ar
    37    20    21   ar
    38    21    22   ar
    39    21    43    1
    40    22    23   ar
    41    22    44    1
    42    23    24   ar
    43    23    45    1
    44    24    25   ar
    45    24    46    1
    46    25    47    1
    47    26    27    1
    48    26    48    1
    49    26    49    1
    50    27    28    1
    51    27    50    1
    52    27    51    1
    53    28    29    1
    54    29    30    1
    55    29    52    1
    56    29    53    1
    57    30    54    1
    58    30    55    1
@<TRIPOS>SUBSTRUCTURE
     1 ZINC000051488227        1 TEMP              0 ****  ****    0 ROOT


##########                                Name:    ZINC000110375116
##########                DOCK_Rotatable_Bonds:                  10
##########                         Heavy_Atoms:                  27
##########                    Molecular_Weight:             396.511
##########                DOCK_Rotatable_Bonds:                  10
##########                       Formal_Charge:        -2.23517e-07
##########                     HBond_Acceptors:                   9
##########                        HBond_Donors:                   0
##########                         Heavy_Atoms:                  27
##########                          Grid_Score:          -34.753559
##########                     Grid_vdw_energy:          -33.057789
##########                      Grid_es_energy:           -1.695770
##########           Internal_energy_repulsive:           30.083746

@<TRIPOS>MOLECULE
ZINC000110375116
 55 56 1 0 0
SMALL
USER_CHARGES


@<TRIPOS>ATOM
      1 C1         -8.7036   -0.9317   61.6254 C.3     1  ZINC000110375116   -0.1700
      2 C2         -8.3746   -1.6306   60.3047 C.3     1  ZINC000110375116    0.1000
      3 N3         -9.2358   -1.1012   59.2443 N.am    1  ZINC000110375116   -0.6200
      4 C4        -10.4792   -1.7933   58.8966 C.3     1  ZINC000110375116    0.1100
      5 C5        -11.6230   -1.2492   59.7549 C.3     1  ZINC000110375116   -0.1700
      6 C6         -8.8840    0.0226   58.5886 C.2     1  ZINC000110375116    0.5100
      7 O7         -7.8539    0.5947   58.8754 O.2     1  ZINC000110375116   -0.5300
      8 C8         -9.7709    0.5681   57.4990 C.3     1  ZINC000110375116   -0.1400
      9 C9         -9.4905   -0.1771   56.1925 C.3     1  ZINC000110375116   -0.0900
     10 C10        -8.3823    0.5436   55.4221 C.3     1  ZINC000110375116   -0.1400
     11 C11        -8.4204    0.1223   53.9757 C.2     1  ZINC000110375116    0.5200
     12 O12        -9.0211   -0.8803   53.6517 O.2     1  ZINC000110375116   -0.5300
     13 N13        -7.7867    0.8595   53.0421 N.am    1  ZINC000110375116   -0.6200
     14 C14        -7.0512    2.0742   53.4208 C.3     1  ZINC000110375116    0.0900
     15 C15        -5.6089    1.9519   52.9135 C.3     1  ZINC000110375116    0.1000
     16 N16        -5.6407    1.5552   51.4989 N.am    1  ZINC000110375116   -1.0000
     17 S17        -4.8612    2.4605   50.3520 S.o2    1  ZINC000110375116    2.7000
     18 O18        -4.9562    1.7338   49.1345 O.2     1  ZINC000110375116   -0.9400
     19 O19        -5.3348    3.7918   50.5015 O.2     1  ZINC000110375116   -0.9500
     20 C20        -3.1528    2.4889   50.7824 C.ar    1  ZINC000110375116   -0.7400
     21 C21        -2.3456    1.3920   50.5237 C.ar    1  ZINC000110375116    0.0200
     22 C22        -1.0068    1.4593   50.8791 C.ar    1  ZINC000110375116   -0.1900
     23 C23        -0.5254    2.6093   51.4750 C.ar    1  ZINC000110375116    0.1500
     24 N24        -1.3228    3.6339   51.7062 N.ar    1  ZINC000110375116   -0.4900
     25 C25        -2.5993    3.6073   51.3769 C.ar    1  ZINC000110375116    0.2000
     26 C26        -6.3762    0.3406   51.1202 C.3     1  ZINC000110375116    0.1000
     27 C27        -7.8138    0.4597   51.6282 C.3     1  ZINC000110375116    0.1000
     28 H28        -8.0629   -1.3256   62.4144 H       1  ZINC000110375116    0.0700
     29 H29        -8.5346    0.1400   61.5212 H       1  ZINC000110375116    0.0600
     30 H30        -9.7477   -1.1117   61.8815 H       1  ZINC000110375116    0.0600
     31 H31        -7.3305   -1.4506   60.0486 H       1  ZINC000110375116    0.0800
     32 H32        -8.5436   -2.7024   60.4089 H       1  ZINC000110375116    0.0800
     33 H33       -10.7050   -1.6277   57.8432 H       1  ZINC000110375116    0.0800
     34 H34       -10.3639   -2.8616   59.0798 H       1  ZINC000110375116    0.0800
     35 H35       -12.5481   -1.7641   59.4963 H       1  ZINC000110375116    0.0700
     36 H36       -11.3973   -1.4149   60.8083 H       1  ZINC000110375116    0.0500
     37 H37       -11.7383   -0.1809   59.5716 H       1  ZINC000110375116    0.0600
     38 H38       -10.8155    0.4314   57.7783 H       1  ZINC000110375116    0.0900
     39 H39        -9.5672    1.6301   57.3625 H       1  ZINC000110375116    0.0900
     40 H40        -9.1741   -1.1959   56.4160 H       1  ZINC000110375116    0.0800
     41 H41       -10.3965   -0.2025   55.5871 H       1  ZINC000110375116    0.0800
     42 H42        -8.5335    1.6208   55.4908 H       1  ZINC000110375116    0.1000
     43 H43        -7.4142    0.2845   55.8507 H       1  ZINC000110375116    0.1000
     44 H44        -7.5255    2.9450   52.9683 H       1  ZINC000110375116    0.0800
     45 H45        -7.0498    2.1777   54.5059 H       1  ZINC000110375116    0.1000
     46 H46        -5.1036    2.9125   53.0129 H       1  ZINC000110375116    0.1100
     47 H47        -5.0799    1.1958   53.4937 H       1  ZINC000110375116    0.0800
     48 H48        -2.7497    0.5060   50.0567 H       1  ZINC000110375116    0.1500
     49 H49        -0.3489    0.6234   50.6927 H       1  ZINC000110375116    0.1500
     50 H50         0.5159    2.6695   51.7553 H       1  ZINC000110375116    0.1700
     51 H51        -3.2215    4.4658   51.5820 H       1  ZINC000110375116    0.1700
     52 H52        -6.3776    0.2370   50.0351 H       1  ZINC000110375116    0.1100
     53 H53        -5.9019   -0.5303   51.5727 H       1  ZINC000110375116    0.0800
     54 H54        -8.3179   -0.5015   51.5283 H       1  ZINC000110375116    0.1100
     55 H55        -8.3447    1.2159   51.0498 H       1  ZINC000110375116    0.0800
@<TRIPOS>BOND
     1     1     2    1
     2     1    28    1
     3     1    29    1
     4     1    30    1
     5     2     3    1
     6     2    31    1
     7     2    32    1
     8     3     4    1
     9     3     6   am
    10     4     5    1
    11     4    33    1
    12     4    34    1
    13     5    35    1
    14     5    36    1
    15     5    37    1
    16     6     7    2
    17     6     8    1
    18     8     9    1
    19     8    38    1
    20     8    39    1
    21     9    10    1
    22     9    40    1
    23     9    41    1
    24    10    11    1
    25    10    42    1
    26    10    43    1
    27    11    12    2
    28    11    13   am
    29    13    27    1
    30    13    14    1
    31    14    15    1
    32    14    44    1
    33    14    45    1
    34    15    16    1
    35    15    46    1
    36    15    47    1
    37    16    17   am
    38    16    26    1
    39    17    18    2
    40    17    19    2
    41    17    20    1
    42    20    25   ar
    43    20    21   ar
    44    21    22   ar
    45    21    48    1
    46    22    23   ar
    47    22    49    1
    48    23    24   ar
    49    23    50    1
    50    24    25   ar
    51    25    51    1
    52    26    27    1
    53    26    52    1
    54    26    53    1
    55    27    54    1
    56    27    55    1
@<TRIPOS>SUBSTRUCTURE
     1 ZINC000110375116        1 TEMP              0 ****  ****    0 ROOT


##########                                Name:    ZINC000442010511
##########                DOCK_Rotatable_Bonds:                  11
##########                         Heavy_Atoms:                  31
##########                    Molecular_Weight:             422.481
##########                DOCK_Rotatable_Bonds:                  11
##########                       Formal_Charge:          -0.0200005
##########                     HBond_Acceptors:                   7
##########                        HBond_Donors:                   2
##########                         Heavy_Atoms:                  31
##########                          Grid_Score:          -34.750561
##########                     Grid_vdw_energy:          -33.176292
##########                      Grid_es_energy:           -1.574269
##########           Internal_energy_repulsive:            8.582110

@<TRIPOS>MOLECULE
ZINC000442010511
 57 59 1 0 0
SMALL
USER_CHARGES


@<TRIPOS>ATOM
      1 C1         -3.3528    2.2590   49.8565 C.3     1  ZINC000442010511   -0.1500
      2 C2         -2.8375    3.0347   51.0704 C.3     1  ZINC000442010511   -0.0500
      3 C3         -3.8819    3.0196   52.1566 C.2     1  ZINC000442010511    0.0000
      4 C4         -4.0241    3.9432   53.1241 C.2     1  ZINC000442010511   -0.2100
      5 C5         -5.1204    3.5378   53.9195 C.2     1  ZINC000442010511   -0.1900
      6 C6         -5.5827    2.3908   53.3904 C.2     1  ZINC000442010511   -0.0300
      7 C7         -6.7493    1.5890   53.9074 C.3     1  ZINC000442010511    0.2400
      8 H8         -7.6810    2.0604   53.5949 H       1  ZINC000442010511    0.1400
      9 C9         -6.6819    0.1685   53.3430 C.3     1  ZINC000442010511    0.0500
     10 O10        -6.9600    0.1991   51.9416 O.3     1  ZINC000442010511   -0.3800
     11 C11        -6.8713   -1.0764   51.3034 C.3     1  ZINC000442010511    0.0300
     12 N12        -6.6955    1.5361   55.3705 N.am    1  ZINC000442010511   -0.6900
     13 C13        -7.8201    1.3117   56.0786 C.2     1  ZINC000442010511    0.5200
     14 O14        -8.8776    1.1547   55.5042 O.2     1  ZINC000442010511   -0.5100
     15 C15        -7.7650    1.2560   57.5698 C.2     1  ZINC000442010511    0.5100
     16 O16        -6.7427    1.5575   58.1510 O.2     1  ZINC000442010511   -0.5000
     17 N17        -8.8500    0.8712   58.2704 N.am    1  ZINC000442010511   -0.6300
     18 C18        -8.7984    0.8190   59.6670 C.ar    1  ZINC000442010511    0.1200
     19 C19        -8.8507    1.9901   60.4094 C.ar    1  ZINC000442010511   -0.1000
     20 C20        -8.7994    1.9358   61.7895 C.ar    1  ZINC000442010511   -0.1300
     21 C21        -8.6962    0.7168   62.4338 C.ar    1  ZINC000442010511   -0.0900
     22 C22        -8.6431   -0.4547   61.7013 C.ar    1  ZINC000442010511   -0.1700
     23 C23        -8.7001   -0.4102   60.3178 C.ar    1  ZINC000442010511    0.1000
     24 O24        -8.6480   -1.5610   59.5962 O.3     1  ZINC000442010511   -0.2600
     25 C25        -9.8222   -2.1335   59.2225 C.ar    1  ZINC000442010511    0.0800
     26 C26       -10.1267   -2.2802   57.8767 C.ar    1  ZINC000442010511   -0.1300
     27 C27       -11.3210   -2.8629   57.4994 C.ar    1  ZINC000442010511   -0.1100
     28 C28       -12.2130   -3.2993   58.4617 C.ar    1  ZINC000442010511   -0.0800
     29 C29       -13.5154   -3.9341   58.0472 C.3     1  ZINC000442010511   -0.1200
     30 C30       -11.9119   -3.1548   59.8034 C.ar    1  ZINC000442010511   -0.1100
     31 C31       -10.7166   -2.5775   60.1860 C.ar    1  ZINC000442010511   -0.1100
     32 O32        -4.8323    2.0847   52.3194 O.3     1  ZINC000442010511   -0.1600
     33 H33        -3.5616    1.2290   50.1454 H       1  ZINC000442010511    0.0600
     34 H34        -4.2665    2.7254   49.4884 H       1  ZINC000442010511    0.0600
     35 H35        -2.5973    2.2699   49.0708 H       1  ZINC000442010511    0.0700
     36 H36        -1.9237    2.5683   51.4385 H       1  ZINC000442010511    0.0900
     37 H37        -2.6286    4.0648   50.7815 H       1  ZINC000442010511    0.0800
     38 H38        -3.4168    4.8249   53.2665 H       1  ZINC000442010511    0.1500
     39 H39        -5.5115    4.0506   54.7859 H       1  ZINC000442010511    0.1500
     40 H40        -5.6851   -0.2407   53.5068 H       1  ZINC000442010511    0.0700
     41 H41        -7.4190   -0.4576   53.8460 H       1  ZINC000442010511    0.0700
     42 H42        -7.0960   -0.9683   50.2424 H       1  ZINC000442010511    0.0900
     43 H43        -5.8631   -1.4731   51.4229 H       1  ZINC000442010511    0.0400
     44 H44        -7.5873   -1.7608   51.7585 H       1  ZINC000442010511    0.0400
     45 H45        -5.8504    1.6629   55.8296 H       1  ZINC000442010511    0.4200
     46 H46        -9.6668    0.6303   57.8059 H       1  ZINC000442010511    0.4300
     47 H47        -8.9310    2.9438   59.9090 H       1  ZINC000442010511    0.1600
     48 H48        -8.8399    2.8481   62.3662 H       1  ZINC000442010511    0.1300
     49 H49        -8.6565    0.6797   63.5124 H       1  ZINC000442010511    0.1300
     50 H50        -8.5617   -1.4049   62.2080 H       1  ZINC000442010511    0.1300
     51 H51        -9.4306   -1.9388   57.1248 H       1  ZINC000442010511    0.1300
     52 H52       -11.5584   -2.9773   56.4521 H       1  ZINC000442010511    0.1300
     53 H53       -13.3788   -5.0109   57.9460 H       1  ZINC000442010511    0.0700
     54 H54       -14.2742   -3.7337   58.8035 H       1  ZINC000442010511    0.0700
     55 H55       -13.8351   -3.5172   57.0922 H       1  ZINC000442010511    0.0700
     56 H56       -12.6104   -3.4965   60.5529 H       1  ZINC000442010511    0.1300
     57 H57       -10.4819   -2.4650   61.2342 H       1  ZINC000442010511    0.1300
@<TRIPOS>BOND
     1     1     2    1
     2     1    33    1
     3     1    34    1
     4     1    35    1
     5     2     3    1
     6     2    36    1
     7     2    37    1
     8     3    32    1
     9     3     4    2
    10     4     5    1
    11     4    38    1
    12     5     6    2
    13     5    39    1
    14     6     7    1
    15     6    32    1
    16     7     8    1
    17     7     9    1
    18     7    12    1
    19     9    10    1
    20     9    40    1
    21     9    41    1
    22    10    11    1
    23    11    42    1
    24    11    43    1
    25    11    44    1
    26    12    13   am
    27    12    45    1
    28    13    14    2
    29    13    15    1
    30    15    16    2
    31    15    17   am
    32    17    18    1
    33    17    46    1
    34    18    23   ar
    35    18    19   ar
    36    19    20   ar
    37    19    47    1
    38    20    21   ar
    39    20    48    1
    40    21    22   ar
    41    21    49    1
    42    22    23   ar
    43    22    50    1
    44    23    24    1
    45    24    25    1
    46    25    31   ar
    47    25    26   ar
    48    26    27   ar
    49    26    51    1
    50    27    28   ar
    51    27    52    1
    52    28    29    1
    53    28    30   ar
    54    29    53    1
    55    29    54    1
    56    29    55    1
    57    30    31   ar
    58    30    56    1
    59    31    57    1
@<TRIPOS>SUBSTRUCTURE
     1 ZINC000442010511        1 TEMP              0 ****  ****    0 ROOT


##########                                Name:    ZINC000062291520
##########                DOCK_Rotatable_Bonds:                  10
##########                         Heavy_Atoms:                  29
##########                    Molecular_Weight:             398.502
##########                DOCK_Rotatable_Bonds:                  10
##########                       Formal_Charge:          -0.0100006
##########                     HBond_Acceptors:                   6
##########                        HBond_Donors:                   1
##########                         Heavy_Atoms:                  29
##########                          Grid_Score:          -34.731602
##########                     Grid_vdw_energy:          -33.625904
##########                      Grid_es_energy:           -1.105699
##########           Internal_energy_repulsive:           13.332942

@<TRIPOS>MOLECULE
ZINC000062291520
 59 61 1 0 0
SMALL
USER_CHARGES


@<TRIPOS>ATOM
      1 C1         -1.7303    0.3451   49.8354 C.3     1  ZINC000062291520    0.0300
      2 O2         -3.1196    0.4651   50.1480 O.3     1  ZINC000062291520   -0.3100
      3 C3         -3.6519    1.7163   50.1238 C.ar    1  ZINC000062291520    0.1000
      4 C4         -2.8685    2.7970   49.7532 C.ar    1  ZINC000062291520   -0.1700
      5 C5         -3.4099    4.0693   49.7346 C.ar    1  ZINC000062291520   -0.1200
      6 C6         -4.7338    4.2655   50.0796 C.ar    1  ZINC000062291520   -0.1200
      7 C7         -5.5230    3.1902   50.4445 C.ar    1  ZINC000062291520   -0.1700
      8 C8         -4.9869    1.9130   50.4653 C.ar    1  ZINC000062291520    0.1000
      9 O9         -5.7618    0.8544   50.8238 O.3     1  ZINC000062291520   -0.3100
     10 C10        -6.9968    1.1473   51.4803 C.3     1  ZINC000062291520    0.0700
     11 C11        -7.6188   -0.1506   51.9994 C.3     1  ZINC000062291520   -0.1400
     12 C12        -8.8933    0.1639   52.7394 C.2     1  ZINC000062291520    0.5200
     13 O13        -9.6946    0.9404   52.2640 O.2     1  ZINC000062291520   -0.5400
     14 N14        -9.1426   -0.4175   53.9294 N.am    1  ZINC000062291520   -0.7200
     15 C15       -10.3808   -0.1103   54.6496 C.3     1  ZINC000062291520    0.1600
     16 C16       -10.2511   -0.5545   56.0839 C.ar    1  ZINC000062291520   -0.1100
     17 C17        -9.3567    0.0795   56.9255 C.ar    1  ZINC000062291520   -0.1000
     18 C18        -9.2381   -0.3277   58.2414 C.ar    1  ZINC000062291520   -0.1200
     19 C19       -10.0138   -1.3688   58.7153 C.ar    1  ZINC000062291520   -0.0900
     20 C20       -10.9081   -2.0034   57.8732 C.ar    1  ZINC000062291520   -0.0800
     21 C21       -11.7537   -3.1388   58.3898 C.3     1  ZINC000062291520    0.0900
     22 N22       -13.0873   -2.6347   58.7438 N.3     1  ZINC000062291520   -0.5300
     23 C23       -14.1040   -3.6865   58.5973 C.3     1  ZINC000062291520    0.0100
     24 C24       -15.4830   -3.1037   58.9176 C.3     1  ZINC000062291520    0.0600
     25 O25       -15.4656   -2.5473   60.2349 O.3     1  ZINC000062291520   -0.3800
     26 C26       -14.4873   -1.5193   60.4128 C.3     1  ZINC000062291520    0.0900
     27 H27       -14.7008   -0.6926   59.7353 H       1  ZINC000062291520    0.0700
     28 C28       -14.5289   -1.0192   61.8581 C.3     1  ZINC000062291520   -0.1500
     29 C29       -13.0982   -2.0860   60.1076 C.3     1  ZINC000062291520    0.0200
     30 C30       -11.0309   -1.5925   56.5593 C.ar    1  ZINC000062291520   -0.0900
     31 H31        -1.5509    0.7202   48.8278 H       1  ZINC000062291520    0.0500
     32 H32        -1.1458    0.9259   50.5489 H       1  ZINC000062291520    0.0600
     33 H33        -1.4346   -0.7026   49.8910 H       1  ZINC000062291520    0.1000
     34 H34        -1.8337    2.6465   49.4832 H       1  ZINC000062291520    0.1400
     35 H35        -2.7970    4.9116   49.4495 H       1  ZINC000062291520    0.1300
     36 H36        -5.1530    5.2606   50.0639 H       1  ZINC000062291520    0.1300
     37 H37        -6.5574    3.3460   50.7130 H       1  ZINC000062291520    0.1400
     38 H38        -7.6797    1.6208   50.7750 H       1  ZINC000062291520    0.0700
     39 H39        -6.8128    1.8218   52.3165 H       1  ZINC000062291520    0.0700
     40 H40        -6.9193   -0.6443   52.6740 H       1  ZINC000062291520    0.1100
     41 H41        -7.8394   -0.8092   51.1593 H       1  ZINC000062291520    0.1100
     42 H42        -8.5023   -1.0393   54.3091 H       1  ZINC000062291520    0.4000
     43 H43       -10.5632    0.9638   54.6170 H       1  ZINC000062291520    0.0800
     44 H44       -11.2135   -0.6347   54.1808 H       1  ZINC000062291520    0.0800
     45 H45        -8.7509    0.8933   56.5553 H       1  ZINC000062291520    0.1200
     46 H46        -8.5394    0.1681   58.8991 H       1  ZINC000062291520    0.1300
     47 H47        -9.9211   -1.6868   59.7432 H       1  ZINC000062291520    0.1200
     48 H48       -11.8470   -3.9026   57.6178 H       1  ZINC000062291520    0.0500
     49 H49       -11.2822   -3.5704   59.2728 H       1  ZINC000062291520    0.0900
     50 H50       -14.0958   -4.0605   57.5735 H       1  ZINC000062291520    0.0900
     51 H51       -13.8846   -4.5031   59.2849 H       1  ZINC000062291520    0.0400
     52 H52       -15.7250   -2.3234   58.1960 H       1  ZINC000062291520    0.0600
     53 H53       -16.2327   -3.8933   58.8659 H       1  ZINC000062291520    0.1000
     54 H54       -14.3139   -1.8459   62.5351 H       1  ZINC000062291520    0.0600
     55 H55       -13.7831   -0.2358   61.9931 H       1  ZINC000062291520    0.0700
     56 H56       -15.5193   -0.6194   62.0759 H       1  ZINC000062291520    0.0700
     57 H57       -12.8631   -2.8767   60.8201 H       1  ZINC000062291520    0.0400
     58 H58       -12.3558   -1.2918   60.1863 H       1  ZINC000062291520    0.0900
     59 H59       -11.7329   -2.0850   55.9029 H       1  ZINC000062291520    0.1200
@<TRIPOS>BOND
     1     1     2    1
     2     1    31    1
     3     1    32    1
     4     1    33    1
     5     2     3    1
     6     3     8   ar
     7     3     4   ar
     8     4     5   ar
     9     4    34    1
    10     5     6   ar
    11     5    35    1
    12     6     7   ar
    13     6    36    1
    14     7     8   ar
    15     7    37    1
    16     8     9    1
    17     9    10    1
    18    10    11    1
    19    10    38    1
    20    10    39    1
    21    11    12    1
    22    11    40    1
    23    11    41    1
    24    12    13    2
    25    12    14   am
    26    14    15    1
    27    14    42    1
    28    15    16    1
    29    15    43    1
    30    15    44    1
    31    16    30   ar
    32    16    17   ar
    33    17    18   ar
    34    17    45    1
    35    18    19   ar
    36    18    46    1
    37    19    20   ar
    38    19    47    1
    39    20    21    1
    40    20    30   ar
    41    21    22    1
    42    21    48    1
    43    21    49    1
    44    22    29    1
    45    22    23    1
    46    23    24    1
    47    23    50    1
    48    23    51    1
    49    24    25    1
    50    24    52    1
    51    24    53    1
    52    25    26    1
    53    26    27    1
    54    26    28    1
    55    26    29    1
    56    28    54    1
    57    28    55    1
    58    28    56    1
    59    29    57    1
    60    29    58    1
    61    30    59    1
@<TRIPOS>SUBSTRUCTURE
     1 ZINC000062291520        1 TEMP              0 ****  ****    0 ROOT


##########                                Name:    ZINC000114394234
##########                DOCK_Rotatable_Bonds:                   9
##########                         Heavy_Atoms:                  27
##########                    Molecular_Weight:             365.392
##########                DOCK_Rotatable_Bonds:                   9
##########                       Formal_Charge:           0.0300002
##########                     HBond_Acceptors:                   8
##########                        HBond_Donors:                   3
##########                         Heavy_Atoms:                  27
##########                          Grid_Score:          -34.730629
##########                     Grid_vdw_energy:          -30.620783
##########                      Grid_es_energy:           -4.109847
##########           Internal_energy_repulsive:           10.084266

@<TRIPOS>MOLECULE
ZINC000114394234
 46 48 1 0 0
SMALL
USER_CHARGES


@<TRIPOS>ATOM
      1 C1          1.4134    0.8868   51.7434 C.3     1  ZINC000114394234   -0.1600
      2 C2          0.9823    1.8774   50.6599 C.3     1  ZINC000114394234    0.1300
      3 H3          1.6018    2.7724   50.7187 H       1  ZINC000114394234    0.1200
      4 N4          1.1418    1.2589   49.3414 N.am    1  ZINC000114394234   -0.7100
      5 C5          1.2919    2.0323   48.2479 C.2     1  ZINC000114394234    0.5200
      6 O6          1.2933    3.2404   48.3552 O.2     1  ZINC000114394234   -0.5100
      7 C7          1.4577    1.3961   46.8920 C.3     1  ZINC000114394234    0.0400
      8 O8          0.1799    1.2723   46.2644 O.3     1  ZINC000114394234   -0.2900
      9 C9          0.1535    0.7221   45.0219 C.ar    1  ZINC000114394234    0.1300
     10 C10         1.3401    0.4608   44.3524 C.ar    1  ZINC000114394234   -0.2100
     11 C11         1.3105   -0.0990   43.0898 C.ar    1  ZINC000114394234   -0.0800
     12 C12         0.0997   -0.3984   42.4932 C.ar    1  ZINC000114394234   -0.1600
     13 C13        -1.0843   -0.1385   43.1582 C.ar    1  ZINC000114394234   -0.0800
     14 C14        -1.0600    0.4155   44.4236 C.ar    1  ZINC000114394234   -0.1500
     15 C15        -0.4625    2.2519   50.8678 C.2     1  ZINC000114394234    0.5100
     16 O16        -0.8057    2.7976   51.8952 O.2     1  ZINC000114394234   -0.5100
     17 N17        -1.3732    1.9805   49.9122 N.am    1  ZINC000114394234   -0.6700
     18 C18        -2.7148    2.3283   50.1052 C.ar    1  ZINC000114394234    0.1300
     19 C19        -3.1337    3.6336   49.8792 C.ar    1  ZINC000114394234   -0.1200
     20 C20        -4.4580    3.9808   50.0688 C.ar    1  ZINC000114394234   -0.1000
     21 C21        -5.3717    3.0330   50.4841 C.ar    1  ZINC000114394234   -0.0900
     22 C22        -4.9601    1.7212   50.7138 C.ar    1  ZINC000114394234    0.0000
     23 C23        -5.9411    0.7012   51.1608 C.2     1  ZINC000114394234    0.2700
     24 N24        -6.2322   -0.4125   50.5252 N.2     1  ZINC000114394234   -0.3000
     25 N25        -7.2021   -1.0751   51.2950 N.pl3   1  ZINC000114394234   -0.4800
     26 C26        -7.4355   -0.2977   52.3677 C.2     1  ZINC000114394234    0.2700
     27 N27        -6.6726    0.7598   52.2818 N.2     1  ZINC000114394234   -0.5300
     28 C28        -3.6280    1.3690   50.5167 C.ar    1  ZINC000114394234   -0.0800
     29 H29         0.7940   -0.0081   51.6847 H       1  ZINC000114394234    0.0700
     30 H30         2.4585    0.6160   51.5931 H       1  ZINC000114394234    0.0800
     31 H31         1.2948    1.3471   52.7243 H       1  ZINC000114394234    0.0800
     32 H32         1.1394    0.2927   49.2556 H       1  ZINC000114394234    0.4100
     33 H33         2.1066    2.0182   46.2756 H       1  ZINC000114394234    0.1000
     34 H34         1.9036    0.4080   47.0063 H       1  ZINC000114394234    0.1000
     35 H35         2.2862    0.6952   44.8177 H       1  ZINC000114394234    0.1300
     36 H36         2.2340   -0.3026   42.5681 H       1  ZINC000114394234    0.1300
     37 H37         0.0787   -0.8357   41.5059 H       1  ZINC000114394234    0.1300
     38 H38        -2.0288   -0.3730   42.6900 H       1  ZINC000114394234    0.1300
     39 H39        -1.9851    0.6183   44.9426 H       1  ZINC000114394234    0.1300
     40 H40        -1.0987    1.5441   49.0905 H       1  ZINC000114394234    0.4200
     41 H41        -2.4226    4.3788   49.5548 H       1  ZINC000114394234    0.1300
     42 H42        -4.7789    4.9967   49.8919 H       1  ZINC000114394234    0.1400
     43 H43        -6.4056    3.3080   50.6317 H       1  ZINC000114394234    0.1400
     44 H44        -7.6216   -1.9260   51.0926 H       1  ZINC000114394234    0.4400
     45 H45        -8.1308   -0.5129   53.1657 H       1  ZINC000114394234    0.2300
     46 H46        -3.3044    0.3539   50.6932 H       1  ZINC000114394234    0.1500
@<TRIPOS>BOND
     1     1     2    1
     2     1    29    1
     3     1    30    1
     4     1    31    1
     5     2     3    1
     6     2     4    1
     7     2    15    1
     8     4     5   am
     9     4    32    1
    10     5     6    2
    11     5     7    1
    12     7     8    1
    13     7    33    1
    14     7    34    1
    15     8     9    1
    16     9    14   ar
    17     9    10   ar
    18    10    11   ar
    19    10    35    1
    20    11    12   ar
    21    11    36    1
    22    12    13   ar
    23    12    37    1
    24    13    14   ar
    25    13    38    1
    26    14    39    1
    27    15    16    2
    28    15    17   am
    29    17    18    1
    30    17    40    1
    31    18    28   ar
    32    18    19   ar
    33    19    20   ar
    34    19    41    1
    35    20    21   ar
    36    20    42    1
    37    21    22   ar
    38    21    43    1
    39    22    23    1
    40    22    28   ar
    41    23    27    1
    42    23    24    2
    43    24    25    1
    44    25    26    1
    45    25    44    1
    46    26    27    2
    47    26    45    1
    48    28    46    1
@<TRIPOS>SUBSTRUCTURE
     1 ZINC000114394234        1 TEMP              0 ****  ****    0 ROOT


##########                                Name:    ZINC000426567005
##########                DOCK_Rotatable_Bonds:                   9
##########                         Heavy_Atoms:                  31
##########                    Molecular_Weight:             417.467
##########                DOCK_Rotatable_Bonds:                   9
##########                       Formal_Charge:        -2.23517e-07
##########                     HBond_Acceptors:                   8
##########                        HBond_Donors:                   4
##########                         Heavy_Atoms:                  31
##########                          Grid_Score:          -34.717972
##########                     Grid_vdw_energy:          -33.788574
##########                      Grid_es_energy:           -0.929396
##########           Internal_energy_repulsive:            6.466084

@<TRIPOS>MOLECULE
ZINC000426567005
 54 57 1 0 0
SMALL
USER_CHARGES


@<TRIPOS>ATOM
      1 O1         -5.7147    2.9155   52.1211 O.2     1  ZINC000426567005   -0.4900
      2 C2         -6.2751    1.8580   51.9184 C.2     1  ZINC000426567005    0.5200
      3 N3         -5.9199    1.0985   50.8632 N.am    1  ZINC000426567005   -0.6000
      4 C4         -4.9090    1.5317   49.9981 C.2     1  ZINC000426567005    0.3000
      5 N5         -5.0454    2.4074   49.0296 N.2     1  ZINC000426567005   -0.3100
      6 N6         -3.8021    2.5633   48.4036 N.pl3   1  ZINC000426567005   -0.4600
      7 C7         -2.9166    1.7557   49.0249 C.2     1  ZINC000426567005    0.1100
      8 C8         -1.4577    1.6058   48.6781 C.3     1  ZINC000426567005   -0.0300
      9 C9         -1.2742    0.5681   47.5431 C.3     1  ZINC000426567005   -0.1200
     10 C10         0.0860    0.9755   46.9242 C.3     1  ZINC000426567005   -0.1300
     11 C11         0.0751    2.5175   46.9686 C.3     1  ZINC000426567005   -0.1300
     12 C12        -0.9064    2.9183   48.0837 C.3     1  ZINC000426567005   -0.1200
     13 C13        -3.5692    1.1103   50.0178 C.2     1  ZINC000426567005   -0.2600
     14 C14        -7.3534    1.3959   52.8411 C.2     1  ZINC000426567005    0.5200
     15 O15        -7.9647    2.2018   53.5121 O.2     1  ZINC000426567005   -0.4900
     16 N16        -7.6483    0.0838   52.9295 N.am    1  ZINC000426567005   -0.6400
     17 C17        -8.6545   -0.3474   53.7905 C.ar    1  ZINC000426567005    0.1700
     18 C18        -8.3838   -0.5169   55.1451 C.ar    1  ZINC000426567005   -0.1300
     19 C19        -9.3761   -0.9429   55.9989 C.ar    1  ZINC000426567005   -0.0300
     20 C20       -10.6567   -1.2048   55.5040 C.ar    1  ZINC000426567005   -0.1500
     21 C21       -11.7231   -1.6612   56.4164 C.2     1  ZINC000426567005    0.5600
     22 O22       -12.8426   -1.1958   56.3241 O.2     1  ZINC000426567005   -0.5100
     23 N23       -11.4560   -2.5938   57.3520 N.am    1  ZINC000426567005   -0.6700
     24 C24       -12.4664   -3.0262   58.2167 C.ar    1  ZINC000426567005    0.1400
     25 C25       -13.4537   -3.8883   57.7573 C.ar    1  ZINC000426567005   -0.1500
     26 C26       -14.4500   -4.3141   58.6139 C.ar    1  ZINC000426567005   -0.1000
     27 C27       -14.4651   -3.8828   59.9277 C.ar    1  ZINC000426567005   -0.1300
     28 C28       -13.4839   -3.0241   60.3882 C.ar    1  ZINC000426567005   -0.1000
     29 C29       -12.4816   -2.5992   59.5383 C.ar    1  ZINC000426567005   -0.1200
     30 C30       -10.9255   -1.0332   54.1432 C.ar    1  ZINC000426567005   -0.0600
     31 C31        -9.9301   -0.6023   53.2955 C.ar    1  ZINC000426567005   -0.1400
     32 H32        -6.3648    0.2515   50.7035 H       1  ZINC000426567005    0.4300
     33 H33        -3.6108    3.1492   47.6545 H       1  ZINC000426567005    0.4400
     34 H34        -0.8850    1.3158   49.5591 H       1  ZINC000426567005    0.1100
     35 H35        -1.2271   -0.4429   47.9477 H       1  ZINC000426567005    0.0800
     36 H36        -2.0743    0.6542   46.8079 H       1  ZINC000426567005    0.0700
     37 H37         0.9094    0.5825   47.5204 H       1  ZINC000426567005    0.0700
     38 H38         0.1574    0.6239   45.8949 H       1  ZINC000426567005    0.0700
     39 H39         1.0731    2.8915   47.1973 H       1  ZINC000426567005    0.0700
     40 H40        -0.2634    2.9162   46.0122 H       1  ZINC000426567005    0.0700
     41 H41        -1.7212    3.5113   47.6686 H       1  ZINC000426567005    0.0600
     42 H42        -0.3848    3.4867   48.8538 H       1  ZINC000426567005    0.0700
     43 H43        -3.1384    0.3927   50.7003 H       1  ZINC000426567005    0.1700
     44 H44        -7.1598   -0.5603   52.3933 H       1  ZINC000426567005    0.4300
     45 H45        -7.3941   -0.3143   55.5270 H       1  ZINC000426567005    0.1500
     46 H46        -9.1653   -1.0750   57.0497 H       1  ZINC000426567005    0.1400
     47 H47       -10.5628   -2.9650   57.4257 H       1  ZINC000426567005    0.4100
     48 H48       -13.4426   -4.2253   56.7312 H       1  ZINC000426567005    0.1300
     49 H49       -15.2182   -4.9841   58.2572 H       1  ZINC000426567005    0.1300
     50 H50       -15.2453   -4.2171   60.5956 H       1  ZINC000426567005    0.1200
     51 H51       -13.4989   -2.6886   61.4146 H       1  ZINC000426567005    0.1300
     52 H52       -11.7153   -1.9288   59.8985 H       1  ZINC000426567005    0.1300
     53 H53       -11.9139   -1.2351   53.7576 H       1  ZINC000426567005    0.1300
     54 H54       -10.1371   -0.4694   52.2439 H       1  ZINC000426567005    0.1400
@<TRIPOS>BOND
     1     1     2    2
     2     2     3   am
     3     2    14    1
     4     3     4    1
     5     3    32    1
     6     4    13    1
     7     4     5    2
     8     5     6    1
     9     6     7    1
    10     6    33    1
    11     7     8    1
    12     7    13    2
    13     8    12    1
    14     8     9    1
    15     8    34    1
    16     9    10    1
    17     9    35    1
    18     9    36    1
    19    10    11    1
    20    10    37    1
    21    10    38    1
    22    11    12    1
    23    11    39    1
    24    11    40    1
    25    12    41    1
    26    12    42    1
    27    13    43    1
    28    14    15    2
    29    14    16   am
    30    16    17    1
    31    16    44    1
    32    17    31   ar
    33    17    18   ar
    34    18    19   ar
    35    18    45    1
    36    19    20   ar
    37    19    46    1
    38    20    21    1
    39    20    30   ar
    40    21    22    2
    41    21    23   am
    42    23    24    1
    43    23    47    1
    44    24    29   ar
    45    24    25   ar
    46    25    26   ar
    47    25    48    1
    48    26    27   ar
    49    26    49    1
    50    27    28   ar
    51    27    50    1
    52    28    29   ar
    53    28    51    1
    54    29    52    1
    55    30    31   ar
    56    30    53    1
    57    31    54    1
@<TRIPOS>SUBSTRUCTURE
     1 ZINC000426567005        1 TEMP              0 ****  ****    0 ROOT


##########                                Name:    ZINC000004598904
##########                DOCK_Rotatable_Bonds:                  13
##########                         Heavy_Atoms:                  30
##########                    Molecular_Weight:             412.442
##########                DOCK_Rotatable_Bonds:                  13
##########                       Formal_Charge:          -0.0300005
##########                     HBond_Acceptors:                   8
##########                        HBond_Donors:                   2
##########                         Heavy_Atoms:                  30
##########                          Grid_Score:          -34.671131
##########                     Grid_vdw_energy:          -34.792343
##########                      Grid_es_energy:            0.121212
##########           Internal_energy_repulsive:           10.118402

@<TRIPOS>MOLECULE
ZINC000004598904
 54 55 1 0 0
SMALL
USER_CHARGES


@<TRIPOS>ATOM
      1 C1         -1.5151    0.8096   47.4258 C.3     1  ZINC000004598904   -0.1500
      2 C2         -2.2441    2.0847   46.9971 C.3     1  ZINC000004598904    0.0600
      3 O3         -3.4683    2.2238   47.7653 O.3     1  ZINC000004598904   -0.3500
      4 C4         -3.3392    2.4055   49.0942 C.2     1  ZINC000004598904    0.5100
      5 O5         -2.2702    2.7475   49.5597 O.2     1  ZINC000004598904   -0.5100
      6 C6         -4.4954    2.1893   49.9837 C.ar    1  ZINC000004598904   -0.1500
      7 C7         -5.7953    2.2701   49.4754 C.ar    1  ZINC000004598904   -0.0400
      8 C8         -6.8720    2.0679   50.3086 C.ar    1  ZINC000004598904   -0.1400
      9 C9         -6.6681    1.7832   51.6553 C.ar    1  ZINC000004598904    0.1800
     10 N10        -7.7611    1.5785   52.4961 N.am    1  ZINC000004598904   -0.6700
     11 C11        -8.1626    0.3250   52.7863 C.2     1  ZINC000004598904    0.5200
     12 O12        -7.5730   -0.6247   52.3161 O.2     1  ZINC000004598904   -0.5100
     13 C13        -9.3441    0.1038   53.6952 C.3     1  ZINC000004598904   -0.1300
     14 C14        -8.9791   -0.9284   54.7639 C.3     1  ZINC000004598904   -0.1300
     15 C15       -10.1768   -1.1890   55.6406 C.2     1  ZINC000004598904    0.5200
     16 O16       -10.6058   -0.3102   56.3579 O.2     1  ZINC000004598904   -0.5100
     17 N17       -10.7712   -2.3985   55.6275 N.am    1  ZINC000004598904   -0.6700
     18 C18       -11.8793   -2.6395   56.4385 C.ar    1  ZINC000004598904    0.1800
     19 C19       -11.7051   -2.8817   57.7977 C.ar    1  ZINC000004598904   -0.1400
     20 C20       -12.7968   -3.1200   58.6014 C.ar    1  ZINC000004598904   -0.0300
     21 C21       -14.0818   -3.1180   58.0508 C.ar    1  ZINC000004598904   -0.1500
     22 C22       -15.2539   -3.3725   58.9087 C.2     1  ZINC000004598904    0.5100
     23 O23       -15.4344   -4.4784   59.3782 O.2     1  ZINC000004598904   -0.5100
     24 O24       -16.1246   -2.3784   59.1720 O.3     1  ZINC000004598904   -0.3600
     25 C25       -15.6061   -1.2152   59.8693 C.3     1  ZINC000004598904    0.0600
     26 C26       -16.2158    0.0532   59.2690 C.3     1  ZINC000004598904   -0.1500
     27 C27       -14.2531   -2.8739   56.6849 C.ar    1  ZINC000004598904   -0.0400
     28 C28       -13.1572   -2.6316   55.8880 C.ar    1  ZINC000004598904   -0.1600
     29 C29        -5.3758    1.7020   52.1647 C.ar    1  ZINC000004598904   -0.1600
     30 C30        -4.2941    1.8975   51.3361 C.ar    1  ZINC000004598904   -0.0300
     31 H31        -2.1565   -0.0533   47.2467 H       1  ZINC000004598904    0.0700
     32 H32        -0.5960    0.7052   46.8490 H       1  ZINC000004598904    0.0800
     33 H33        -1.2734    0.8687   48.4870 H       1  ZINC000004598904    0.0700
     34 H34        -1.6027    2.9476   47.1762 H       1  ZINC000004598904    0.0700
     35 H35        -2.4858    2.0256   45.9358 H       1  ZINC000004598904    0.0700
     36 H36        -5.9543    2.4914   48.4303 H       1  ZINC000004598904    0.1400
     37 H37        -7.8765    2.1305   49.9167 H       1  ZINC000004598904    0.1400
     38 H38        -8.2327    2.3382   52.8722 H       1  ZINC000004598904    0.4200
     39 H39        -9.6142    1.0442   54.1756 H       1  ZINC000004598904    0.1100
     40 H40       -10.1887   -0.2615   53.1108 H       1  ZINC000004598904    0.1100
     41 H41        -8.6723   -1.8570   54.2825 H       1  ZINC000004598904    0.1100
     42 H42        -8.1594   -0.5468   55.3727 H       1  ZINC000004598904    0.1100
     43 H43       -10.4280   -3.1013   55.0537 H       1  ZINC000004598904    0.4200
     44 H44       -10.7121   -2.8830   58.2224 H       1  ZINC000004598904    0.1400
     45 H45       -12.6608   -3.3086   59.6561 H       1  ZINC000004598904    0.1400
     46 H46       -15.8667   -1.2787   60.9257 H       1  ZINC000004598904    0.0700
     47 H47       -14.5217   -1.1820   59.7639 H       1  ZINC000004598904    0.0700
     48 H48       -15.8265    0.9264   59.7925 H       1  ZINC000004598904    0.0800
     49 H49       -15.9552    0.1167   58.2125 H       1  ZINC000004598904    0.0700
     50 H50       -17.3002    0.0200   59.3744 H       1  ZINC000004598904    0.0700
     51 H51       -15.2443   -2.8720   56.2561 H       1  ZINC000004598904    0.1400
     52 H52       -13.2887   -2.4425   54.8328 H       1  ZINC000004598904    0.1400
     53 H53        -5.2211    1.4810   53.2104 H       1  ZINC000004598904    0.1400
     54 H54        -3.2913    1.8344   51.7321 H       1  ZINC000004598904    0.1400
@<TRIPOS>BOND
     1     1     2    1
     2     1    31    1
     3     1    32    1
     4     1    33    1
     5     2     3    1
     6     2    34    1
     7     2    35    1
     8     3     4    1
     9     4     5    2
    10     4     6    1
    11     6    30   ar
    12     6     7   ar
    13     7     8   ar
    14     7    36    1
    15     8     9   ar
    16     8    37    1
    17     9    10    1
    18     9    29   ar
    19    10    11   am
    20    10    38    1
    21    11    12    2
    22    11    13    1
    23    13    14    1
    24    13    39    1
    25    13    40    1
    26    14    15    1
    27    14    41    1
    28    14    42    1
    29    15    16    2
    30    15    17   am
    31    17    18    1
    32    17    43    1
    33    18    28   ar
    34    18    19   ar
    35    19    20   ar
    36    19    44    1
    37    20    21   ar
    38    20    45    1
    39    21    22    1
    40    21    27   ar
    41    22    23    2
    42    22    24    1
    43    24    25    1
    44    25    26    1
    45    25    46    1
    46    25    47    1
    47    26    48    1
    48    26    49    1
    49    26    50    1
    50    27    28   ar
    51    27    51    1
    52    28    52    1
    53    29    30   ar
    54    29    53    1
    55    30    54    1
@<TRIPOS>SUBSTRUCTURE
     1 ZINC000004598904        1 TEMP              0 ****  ****    0 ROOT


##########                                Name:    ZINC000824084043
##########                DOCK_Rotatable_Bonds:                  11
##########                         Heavy_Atoms:                  27
##########                    Molecular_Weight:             382.547
##########                DOCK_Rotatable_Bonds:                  11
##########                       Formal_Charge:        -6.85453e-07
##########                     HBond_Acceptors:                   7
##########                        HBond_Donors:                   3
##########                         Heavy_Atoms:                  27
##########                          Grid_Score:          -34.646305
##########                     Grid_vdw_energy:          -31.708427
##########                      Grid_es_energy:           -2.937879
##########           Internal_energy_repulsive:           15.557660

@<TRIPOS>MOLECULE
ZINC000824084043
 65 66 1 0 0
SMALL
USER_CHARGES


@<TRIPOS>ATOM
      1 C1         -9.4951    1.1476   58.2563 C.3     1  ZINC000824084043   -0.1400
      2 C2         -9.5091   -0.3823   58.2643 C.3     1  ZINC000824084043   -0.1000
      3 C3        -10.1899   -0.8794   59.5411 C.3     1  ZINC000824084043   -0.1300
      4 C4        -10.2792   -0.8916   57.0442 C.3     1  ZINC000824084043    0.1700
      5 H5        -11.2139   -0.3391   56.9479 H       1  ZINC000824084043    0.0700
      6 C6         -9.4338   -0.6871   55.7856 C.3     1  ZINC000824084043   -0.1400
      7 C7        -10.0961    0.3631   54.8914 C.3     1  ZINC000824084043    0.1300
      8 N8         -9.5801    0.2374   53.5260 N.am    1  ZINC000824084043   -0.6200
      9 C9        -10.1995   -0.7070   52.5929 C.3     1  ZINC000824084043    0.0800
     10 C10        -8.5356    0.9905   53.1284 C.2     1  ZINC000824084043    0.7000
     11 O11        -8.0224    1.7754   53.9024 O.2     1  ZINC000824084043   -0.5800
     12 N12        -8.0598    0.8737   51.8728 N.am    1  ZINC000824084043   -0.7500
     13 C13        -6.9255    1.6937   51.4400 C.3     1  ZINC000824084043    0.1600
     14 C14        -5.6229    0.9152   51.6460 C.3     1  ZINC000824084043   -0.1600
     15 C15        -4.4504    1.7452   51.1188 C.3     1  ZINC000824084043   -0.0100
     16 N16        -4.6406    2.0141   49.6884 N.4     1  ZINC000824084043   -0.3800
     17 H17        -4.7356    1.1404   49.1927 H       1  ZINC000824084043    0.4200
     18 C18        -3.4766    2.7452   49.1701 C.3     1  ZINC000824084043    0.0000
     19 C19        -2.3637    1.7535   48.8249 C.3     1  ZINC000824084043   -0.1200
     20 C20        -1.8599    1.9860   47.3789 C.3     1  ZINC000824084043   -0.1400
     21 C21        -0.4316    1.3878   47.4143 C.3     1  ZINC000824084043   -0.1200
     22 C22         0.1067    1.7758   48.8070 C.3     1  ZINC000824084043   -0.1300
     23 C23        -1.1218    2.0084   49.7039 C.3     1  ZINC000824084043   -0.1100
     24 C24        -5.8501    2.8217   49.4899 C.3     1  ZINC000824084043    0.0000
     25 C25        -7.0764    2.0331   49.9544 C.3     1  ZINC000824084043   -0.1600
     26 N26       -10.5701   -2.3178   57.2108 N.am    1  ZINC000824084043   -0.7800
     27 C27       -11.6280   -2.8677   56.5824 C.2     1  ZINC000824084043    0.6600
     28 O28       -11.8700   -4.0586   56.7202 O.co2   1  ZINC000824084043   -0.7200
     29 O29       -12.3462   -2.1756   55.8743 O.co2   1  ZINC000824084043   -0.7300
     30 H30        -8.9464    1.5104   59.1255 H       1  ZINC000824084043    0.0500
     31 H31        -9.0101    1.5018   57.3466 H       1  ZINC000824084043    0.0500
     32 H32       -10.5187    1.5205   58.2911 H       1  ZINC000824084043    0.0500
     33 H33        -8.4855   -0.7553   58.2294 H       1  ZINC000824084043    0.0500
     34 H34       -11.2135   -0.5065   59.5759 H       1  ZINC000824084043    0.0600
     35 H35       -10.1998   -1.9694   59.5468 H       1  ZINC000824084043    0.0700
     36 H36        -9.6413   -0.5166   60.4102 H       1  ZINC000824084043    0.0300
     37 H37        -8.4375   -0.3473   56.0684 H       1  ZINC000824084043    0.0700
     38 H38        -9.3560   -1.6292   55.2431 H       1  ZINC000824084043    0.0600
     39 H39       -11.1751    0.2087   54.8877 H       1  ZINC000824084043    0.0900
     40 H40        -9.8728    1.3590   55.2740 H       1  ZINC000824084043    0.0900
     41 H41       -11.0012   -0.2074   52.0490 H       1  ZINC000824084043    0.0600
     42 H42        -9.4499   -1.0651   51.8872 H       1  ZINC000824084043    0.0600
     43 H43       -10.6083   -1.5512   53.1482 H       1  ZINC000824084043    0.0800
     44 H44        -8.4685    0.2467   51.2557 H       1  ZINC000824084043    0.4000
     45 H45        -6.8976    2.6141   52.0233 H       1  ZINC000824084043    0.1100
     46 H46        -5.4807    0.7183   52.7086 H       1  ZINC000824084043    0.1200
     47 H47        -5.6735   -0.0288   51.1036 H       1  ZINC000824084043    0.0900
     48 H48        -4.4006    2.6889   51.6619 H       1  ZINC000824084043    0.1300
     49 H49        -3.5213    1.1940   51.2640 H       1  ZINC000824084043    0.1300
     50 H50        -3.7630    3.2962   48.2743 H       1  ZINC000824084043    0.1300
     51 H51        -3.1193    3.4432   49.9272 H       1  ZINC000824084043    0.1300
     52 H52        -2.7150    0.7291   48.9486 H       1  ZINC000824084043    0.1000
     53 H53        -2.4842    1.4531   46.6618 H       1  ZINC000824084043    0.0700
     54 H54        -1.8270    3.0508   47.1477 H       1  ZINC000824084043    0.0800
     55 H55        -0.4694    0.3036   47.3083 H       1  ZINC000824084043    0.0700
     56 H56         0.1857    1.8273   46.6308 H       1  ZINC000824084043    0.0800
     57 H57         0.7158    0.9669   49.2105 H       1  ZINC000824084043    0.0700
     58 H58         0.6969    2.6895   48.7379 H       1  ZINC000824084043    0.0700
     59 H59        -1.1279    3.0349   50.0700 H       1  ZINC000824084043    0.0700
     60 H60        -1.1090    1.3123   50.5426 H       1  ZINC000824084043    0.0800
     61 H61        -5.7704    3.7425   50.0677 H       1  ZINC000824084043    0.1300
     62 H62        -5.9543    3.0652   48.4326 H       1  ZINC000824084043    0.1300
     63 H63        -7.1571    1.1123   49.3769 H       1  ZINC000824084043    0.0900
     64 H64        -7.9732    2.6352   49.8078 H       1  ZINC000824084043    0.1200
     65 H65       -10.0013   -2.8662   57.7734 H       1  ZINC000824084043    0.3600
@<TRIPOS>BOND
     1     1     2    1
     2     1    30    1
     3     1    31    1
     4     1    32    1
     5     2     3    1
     6     2     4    1
     7     2    33    1
     8     3    34    1
     9     3    35    1
    10     3    36    1
    11     4     5    1
    12     4     6    1
    13     4    26    1
    14     6     7    1
    15     6    37    1
    16     6    38    1
    17     7     8    1
    18     7    39    1
    19     7    40    1
    20     8     9    1
    21     8    10   am
    22     9    41    1
    23     9    42    1
    24     9    43    1
    25    10    11    2
    26    10    12   am
    27    12    13    1
    28    12    44    1
    29    13    25    1
    30    13    14    1
    31    13    45    1
    32    14    15    1
    33    14    46    1
    34    14    47    1
    35    15    16    1
    36    15    48    1
    37    15    49    1
    38    16    17    1
    39    16    18    1
    40    16    24    1
    41    18    19    1
    42    18    50    1
    43    18    51    1
    44    19    23    1
    45    19    20    1
    46    19    52    1
    47    20    21    1
    48    20    53    1
    49    20    54    1
    50    21    22    1
    51    21    55    1
    52    21    56    1
    53    22    23    1
    54    22    57    1
    55    22    58    1
    56    23    59    1
    57    23    60    1
    58    24    25    1
    59    24    61    1
    60    24    62    1
    61    25    63    1
    62    25    64    1
    63    26    27   am
    64    26    65    1
    65    27    28   ar
    66    27    29   ar
@<TRIPOS>SUBSTRUCTURE
     1 ZINC000824084043        1 TEMP              0 ****  ****    0 ROOT


##########                                Name:    ZINC000746432885
##########                DOCK_Rotatable_Bonds:                  11
##########                         Heavy_Atoms:                  31
##########                    Molecular_Weight:              419.44
##########                DOCK_Rotatable_Bonds:                  11
##########                       Formal_Charge:           0.0199995
##########                     HBond_Acceptors:                   9
##########                        HBond_Donors:                   2
##########                         Heavy_Atoms:                  31
##########                          Grid_Score:          -34.601978
##########                     Grid_vdw_energy:          -33.246449
##########                      Grid_es_energy:           -1.355531
##########           Internal_energy_repulsive:           12.131765

@<TRIPOS>MOLECULE
ZINC000746432885
 52 54 1 0 0
SMALL
USER_CHARGES


@<TRIPOS>ATOM
      1 C1         -8.5553   -0.1365   52.3999 C.3     1  ZINC000746432885    0.0300
      2 O2         -9.2892   -1.0182   53.2521 O.3     1  ZINC000746432885   -0.3200
      3 C3         -9.6865   -0.5252   54.4546 C.ar    1  ZINC000746432885    0.1300
      4 C4        -10.1562    0.7767   54.5509 C.ar    1  ZINC000746432885   -0.2000
      5 C5        -10.5593    1.2755   55.7744 C.ar    1  ZINC000746432885   -0.0800
      6 C6        -10.4947    0.4787   56.9025 C.ar    1  ZINC000746432885   -0.1400
      7 C7        -10.0270   -0.8191   56.8091 C.ar    1  ZINC000746432885   -0.0600
      8 C8         -9.9582   -1.6851   58.0406 C.3     1  ZINC000746432885    0.2300
      9 N9         -9.8103   -0.8372   59.2262 N.am    1  ZINC000746432885   -0.6900
     10 C10        -9.0410   -1.2453   60.2548 C.2     1  ZINC000746432885    0.5200
     11 O11        -8.4695   -2.3146   60.1982 O.2     1  ZINC000746432885   -0.5100
     12 C12        -8.8917   -0.3820   61.4639 C.2     1  ZINC000746432885    0.5100
     13 O13        -8.9325    0.8265   61.3558 O.2     1  ZINC000746432885   -0.5100
     14 N14        -8.7117   -0.9444   62.6755 N.am    1  ZINC000746432885   -0.6100
     15 C15        -8.5729   -0.1323   63.8133 C.2     1  ZINC000746432885    0.0000
     16 C16        -7.4666   -0.0318   64.5954 C.2     1  ZINC000746432885    0.0400
     17 N17        -7.7409    0.8515   65.5818 N.pl3   1  ZINC000746432885   -0.3800
     18 C18        -6.8260    1.2599   66.6506 C.3     1  ZINC000746432885    0.2500
     19 C19        -6.9884    0.3618   67.8055 C.1     1  ZINC000746432885    0.1900
     20 N20        -7.1140   -0.3313   68.6968 N.1     1  ZINC000746432885   -0.3900
     21 N21        -9.0528    1.3077   65.4023 N.2     1  ZINC000746432885   -0.2800
     22 C22        -9.5504    0.7249   64.3419 C.2     1  ZINC000746432885    0.0700
     23 C23       -11.2241   -2.4946   58.1567 C.ar    1  ZINC000746432885   -0.0500
     24 C24       -11.3035   -3.7413   57.5644 C.ar    1  ZINC000746432885   -0.1500
     25 C25       -12.4633   -4.4866   57.6695 C.ar    1  ZINC000746432885   -0.0700
     26 C26       -13.5460   -3.9869   58.3669 C.ar    1  ZINC000746432885   -0.2000
     27 C27       -13.4689   -2.7362   58.9621 C.ar    1  ZINC000746432885    0.1300
     28 O28       -14.5326   -2.2424   59.6488 O.3     1  ZINC000746432885   -0.3200
     29 C29       -15.2510   -1.1648   59.0448 C.3     1  ZINC000746432885    0.0300
     30 C30       -12.3021   -1.9926   58.8596 C.ar    1  ZINC000746432885   -0.1300
     31 C31        -9.6284   -1.3246   55.5869 C.ar    1  ZINC000746432885   -0.1300
     32 H32        -7.6415    0.1786   52.9035 H       1  ZINC000746432885    0.0600
     33 H33        -8.3005   -0.6538   51.4749 H       1  ZINC000746432885    0.1000
     34 H34        -9.1643    0.7381   52.1711 H       1  ZINC000746432885    0.0600
     35 H35       -10.2062    1.3997   53.6702 H       1  ZINC000746432885    0.1300
     36 H36       -10.9251    2.2889   55.8499 H       1  ZINC000746432885    0.1300
     37 H37       -10.8096    0.8707   57.8582 H       1  ZINC000746432885    0.1200
     38 H38        -9.1030   -2.3567   57.9652 H       1  ZINC000746432885    0.1200
     39 H39       -10.2661    0.0179   59.2709 H       1  ZINC000746432885    0.4200
     40 H40        -8.6779   -1.9100   62.7617 H       1  ZINC000746432885    0.4200
     41 H41        -6.5362   -0.5620   64.4547 H       1  ZINC000746432885    0.1900
     42 H42        -5.7988    1.2057   66.2900 H       1  ZINC000746432885    0.1300
     43 H43        -7.0519    2.2829   66.9513 H       1  ZINC000746432885    0.1500
     44 H44       -10.5440    0.8729   63.9456 H       1  ZINC000746432885    0.2100
     45 H45       -10.4583   -4.1336   57.0183 H       1  ZINC000746432885    0.1200
     46 H46       -12.5230   -5.4602   57.2056 H       1  ZINC000746432885    0.1300
     47 H47       -14.4519   -4.5694   58.4484 H       1  ZINC000746432885    0.1300
     48 H48       -16.0733   -0.8665   59.6953 H       1  ZINC000746432885    0.1000
     49 H49       -14.5800   -0.3189   58.8963 H       1  ZINC000746432885    0.0600
     50 H50       -15.6478   -1.4871   58.0821 H       1  ZINC000746432885    0.0600
     51 H51       -12.2396   -1.0187   59.3221 H       1  ZINC000746432885    0.1400
     52 H52        -9.2630   -2.3384   55.5144 H       1  ZINC000746432885    0.1300
@<TRIPOS>BOND
     1     1     2    1
     2     1    32    1
     3     1    33    1
     4     1    34    1
     5     2     3    1
     6     3    31   ar
     7     3     4   ar
     8     4     5   ar
     9     4    35    1
    10     5     6   ar
    11     5    36    1
    12     6     7   ar
    13     6    37    1
    14     7     8    1
    15     7    31   ar
    16     8     9    1
    17     8    23    1
    18     8    38    1
    19     9    10   am
    20     9    39    1
    21    10    11    2
    22    10    12    1
    23    12    13    2
    24    12    14   am
    25    14    15    1
    26    14    40    1
    27    15    22    1
    28    15    16    2
    29    16    17    1
    30    16    41    1
    31    17    18    1
    32    17    21    1
    33    18    19    1
    34    18    42    1
    35    18    43    1
    36    19    20    3
    37    21    22    2
    38    22    44    1
    39    23    30   ar
    40    23    24   ar
    41    24    25   ar
    42    24    45    1
    43    25    26   ar
    44    25    46    1
    45    26    27   ar
    46    26    47    1
    47    27    28    1
    48    27    30   ar
    49    28    29    1
    50    29    48    1
    51    29    49    1
    52    29    50    1
    53    30    51    1
    54    31    52    1
@<TRIPOS>SUBSTRUCTURE
     1 ZINC000746432885        1 TEMP              0 ****  ****    0 ROOT


##########                                Name:    ZINC000562561773
##########                DOCK_Rotatable_Bonds:                   6
##########                         Heavy_Atoms:                  26
##########                    Molecular_Weight:             371.466
##########                DOCK_Rotatable_Bonds:                   6
##########                       Formal_Charge:           0.0199999
##########                     HBond_Acceptors:                   9
##########                        HBond_Donors:                   0
##########                         Heavy_Atoms:                  26
##########                          Grid_Score:          -34.587521
##########                     Grid_vdw_energy:          -32.536522
##########                      Grid_es_energy:           -2.050999
##########           Internal_energy_repulsive:           28.701672

@<TRIPOS>MOLECULE
ZINC000562561773
 47 50 1 0 0
SMALL
USER_CHARGES


@<TRIPOS>ATOM
      1 C1        -13.4794   -5.4870   56.7415 C.3     1  ZINC000562561773   -0.1100
      2 C2        -12.7892   -4.4714   57.6154 C.ar    1  ZINC000562561773   -0.0400
      3 C3        -11.4918   -4.6923   58.0360 C.ar    1  ZINC000562561773   -0.1200
      4 C4        -10.8539   -3.7657   58.8368 C.ar    1  ZINC000562561773   -0.0700
      5 C5        -11.5181   -2.6035   59.2234 C.ar    1  ZINC000562561773   -0.0300
      6 C6        -10.8334   -1.6064   60.0838 C.2     1  ZINC000562561773    0.2200
      7 N7        -10.9446   -0.3060   60.0044 N.2     1  ZINC000562561773   -0.3700
      8 O8        -10.2558    0.2237   60.8505 O.3     1  ZINC000562561773    0.0900
      9 C9         -9.6209   -0.7057   61.5717 C.2     1  ZINC000562561773    0.1900
     10 C10        -8.6733   -0.4573   62.7168 C.3     1  ZINC000562561773   -0.0100
     11 C11        -8.9248    0.9372   63.2936 C.3     1  ZINC000562561773   -0.1200
     12 S12        -7.7398    1.2633   64.6224 S.3     1  ZINC000562561773    0.0600
     13 C13        -8.1193   -0.0736   65.7057 C.2     1  ZINC000562561773    0.2100
     14 N14        -9.0306   -1.0022   65.5117 N.2     1  ZINC000562561773   -0.3300
     15 N15        -9.0487   -1.8271   66.4958 N.2     1  ZINC000562561773   -0.0300
     16 N16        -8.1676   -1.4941   67.3758 N.2     1  ZINC000562561773   -0.0700
     17 N17        -7.5240   -0.3418   66.8919 N.pl3   1  ZINC000562561773   -0.3600
     18 C18        -6.4465    0.4126   67.5369 C.3     1  ZINC000562561773    0.0800
     19 N19        -9.9824   -1.8730   61.1003 N.2     1  ZINC000562561773   -0.4600
     20 C20       -12.8255   -2.3794   58.8003 C.ar    1  ZINC000562561773   -0.1100
     21 C21       -13.4576   -3.3121   57.9915 C.ar    1  ZINC000562561773    0.0800
     22 N22       -14.7692   -3.0917   57.5640 N.3     1  ZINC000562561773   -0.4800
     23 C23       -15.6815   -2.9032   58.7208 C.3     1  ZINC000562561773    0.0400
     24 C24       -16.8979   -2.1733   58.0978 C.3     1  ZINC000562561773   -0.1200
     25 C25       -16.2420   -1.2266   57.0665 C.3     1  ZINC000562561773   -0.1300
     26 C26       -14.8654   -1.8490   56.7679 C.3     1  ZINC000562561773    0.0400
     27 H27       -13.2886   -5.2543   55.6939 H       1  ZINC000562561773    0.0700
     28 H28       -13.0960   -6.4818   56.9683 H       1  ZINC000562561773    0.0600
     29 H29       -14.5525   -5.4593   56.9303 H       1  ZINC000562561773    0.0800
     30 H30       -10.9752   -5.5928   57.7378 H       1  ZINC000562561773    0.1400
     31 H31        -9.8398   -3.9422   59.1638 H       1  ZINC000562561773    0.1400
     32 H32        -8.8360   -1.2061   63.4920 H       1  ZINC000562561773    0.1200
     33 H33        -7.6458   -0.5226   62.3588 H       1  ZINC000562561773    0.1300
     34 H34        -8.8038    1.6828   62.5078 H       1  ZINC000562561773    0.1100
     35 H35        -9.9388    0.9889   63.6903 H       1  ZINC000562561773    0.1100
     36 H36        -5.4832    0.0111   67.2223 H       1  ZINC000562561773    0.1000
     37 H37        -6.5144    1.4616   67.2489 H       1  ZINC000562561773    0.1000
     38 H38        -6.5401    0.3262   68.6194 H       1  ZINC000562561773    0.1100
     39 H39       -13.3444   -1.4802   59.0977 H       1  ZINC000562561773    0.1300
     40 H40       -15.9813   -3.8657   59.1352 H       1  ZINC000562561773    0.0900
     41 H41       -15.2112   -2.2839   59.4848 H       1  ZINC000562561773    0.0500
     42 H42       -17.5613   -2.8826   57.6029 H       1  ZINC000562561773    0.0800
     43 H43       -17.4362   -1.6044   58.8559 H       1  ZINC000562561773    0.0700
     44 H44       -16.8424   -1.1826   56.1578 H       1  ZINC000562561773    0.0800
     45 H45       -16.1225   -0.2296   57.4906 H       1  ZINC000562561773    0.0700
     46 H46       -14.0744   -1.1584   57.0604 H       1  ZINC000562561773    0.0500
     47 H47       -14.7853   -2.0812   55.7059 H       1  ZINC000562561773    0.0800
@<TRIPOS>BOND
     1     1     2    1
     2     1    27    1
     3     1    28    1
     4     1    29    1
     5     2    21   ar
     6     2     3   ar
     7     3     4   ar
     8     3    30    1
     9     4     5   ar
    10     4    31    1
    11     5     6    1
    12     5    20   ar
    13     6    19    1
    14     6     7    2
    15     7     8    1
    16     8     9    1
    17     9    10    1
    18     9    19    2
    19    10    11    1
    20    10    32    1
    21    10    33    1
    22    11    12    1
    23    11    34    1
    24    11    35    1
    25    12    13    1
    26    13    17    1
    27    13    14    2
    28    14    15    1
    29    15    16    2
    30    16    17    1
    31    17    18    1
    32    18    36    1
    33    18    37    1
    34    18    38    1
    35    20    21   ar
    36    20    39    1
    37    21    22    1
    38    22    26    1
    39    22    23    1
    40    23    24    1
    41    23    40    1
    42    23    41    1
    43    24    25    1
    44    24    42    1
    45    24    43    1
    46    25    26    1
    47    25    44    1
    48    25    45    1
    49    26    46    1
    50    26    47    1
@<TRIPOS>SUBSTRUCTURE
     1 ZINC000562561773        1 TEMP              0 ****  ****    0 ROOT


##########                                Name:    ZINC000375302598
##########                DOCK_Rotatable_Bonds:                   8
##########                         Heavy_Atoms:                  27
##########                    Molecular_Weight:             368.479
##########                DOCK_Rotatable_Bonds:                   8
##########                       Formal_Charge:               -0.02
##########                     HBond_Acceptors:                   6
##########                        HBond_Donors:                   1
##########                         Heavy_Atoms:                  27
##########                          Grid_Score:          -34.533752
##########                     Grid_vdw_energy:          -34.338341
##########                      Grid_es_energy:           -0.195412
##########           Internal_energy_repulsive:            6.920924

@<TRIPOS>MOLECULE
ZINC000375302598
 55 58 1 0 0
SMALL
USER_CHARGES


@<TRIPOS>ATOM
      1 C1         -1.1300    0.3534   44.7128 C.3     1  ZINC000375302598   -0.1500
      2 C2         -1.1997   -0.5191   45.9678 C.3     1  ZINC000375302598   -0.0300
      3 C3         -1.7856    0.2800   47.1032 C.2     1  ZINC000375302598    0.1800
      4 N4         -2.5558    1.3361   46.9991 N.2     1  ZINC000375302598   -0.4700
      5 C5         -2.8313    1.7092   48.2615 C.2     1  ZINC000375302598    0.1800
      6 C6         -3.6856    2.8781   48.6799 C.3     1  ZINC000375302598    0.1500
      7 N7         -3.9041    2.8300   50.1318 N.3     1  ZINC000375302598   -0.5300
      8 C8         -3.6240    4.1324   50.7496 C.3     1  ZINC000375302598    0.0500
      9 C9         -3.7202    4.0076   52.2718 C.3     1  ZINC000375302598   -0.1100
     10 C10        -5.1254    3.5330   52.6522 C.3     1  ZINC000375302598   -0.1300
     11 C11        -5.4105    2.1986   51.9574 C.3     1  ZINC000375302598    0.1500
     12 H12        -4.7010    1.4481   52.3057 H       1  ZINC000375302598    0.1000
     13 N13        -6.7742    1.7653   52.2712 N.am    1  ZINC000375302598   -0.7300
     14 C14        -7.1725    0.5157   51.9610 C.2     1  ZINC000375302598    0.5200
     15 O15        -6.4023   -0.2497   51.4207 O.2     1  ZINC000375302598   -0.5300
     16 C16        -8.5748    0.0694   52.2854 C.3     1  ZINC000375302598   -0.1100
     17 C17        -8.6314   -0.4230   53.7329 C.3     1  ZINC000375302598   -0.1200
     18 H18        -7.7198   -0.8892   54.1068 H       1  ZINC000375302598    0.1200
     19 C19        -9.9658   -0.9734   54.2402 C.3     1  ZINC000375302598   -0.1700
     20 C20        -9.4665    0.3905   54.7237 C.3     1  ZINC000375302598   -0.1100
     21 H21        -9.9759    1.2763   54.3444 H       1  ZINC000375302598    0.1100
     22 C22        -8.9667    0.4857   56.1422 C.ar    1  ZINC000375302598   -0.0500
     23 C23        -9.6452   -0.1602   57.1589 C.ar    1  ZINC000375302598   -0.1200
     24 C24        -9.1867   -0.0728   58.4601 C.ar    1  ZINC000375302598   -0.1200
     25 C25        -8.0496    0.6599   58.7446 C.ar    1  ZINC000375302598   -0.1300
     26 C26        -7.3707    1.3050   57.7278 C.ar    1  ZINC000375302598   -0.1200
     27 C27        -7.8267    1.2141   56.4260 C.ar    1  ZINC000375302598   -0.1100
     28 C28        -5.2652    2.3758   50.4443 C.3     1  ZINC000375302598    0.0500
     29 N29        -2.2258    0.8765   49.0543 N.2     1  ZINC000375302598   -0.3800
     30 O30        -1.6241    0.0442   48.4087 O.3     1  ZINC000375302598    0.0800
     31 H31        -0.5009    1.2218   44.9085 H       1  ZINC000375302598    0.0600
     32 H32        -0.7063   -0.2246   43.8916 H       1  ZINC000375302598    0.0800
     33 H33        -2.1332    0.6846   44.4443 H       1  ZINC000375302598    0.0600
     34 H34        -1.8289   -1.3874   45.7721 H       1  ZINC000375302598    0.1100
     35 H35        -0.1966   -0.8503   46.2362 H       1  ZINC000375302598    0.1000
     36 H36        -3.1813    3.8085   48.4190 H       1  ZINC000375302598    0.0700
     37 H37        -4.6456    2.8287   48.1661 H       1  ZINC000375302598    0.1100
     38 H38        -2.6202    4.4564   50.4744 H       1  ZINC000375302598    0.0800
     39 H39        -4.3508    4.8647   50.3985 H       1  ZINC000375302598    0.0400
     40 H40        -2.9841    3.2855   52.6250 H       1  ZINC000375302598    0.0700
     41 H41        -3.5275    4.9780   52.7294 H       1  ZINC000375302598    0.0700
     42 H42        -5.1853    3.4011   53.7327 H       1  ZINC000375302598    0.0700
     43 H43        -5.8588    4.2737   52.3336 H       1  ZINC000375302598    0.0600
     44 H44        -7.3906    2.3778   52.7024 H       1  ZINC000375302598    0.4000
     45 H45        -9.2609    0.9070   52.1595 H       1  ZINC000375302598    0.1000
     46 H46        -8.8629   -0.7401   51.6148 H       1  ZINC000375302598    0.1000
     47 H47       -10.8033   -0.9847   53.5429 H       1  ZINC000375302598    0.1000
     48 H48        -9.9321   -1.8014   54.9483 H       1  ZINC000375302598    0.1000
     49 H49       -10.5336   -0.7327   56.9366 H       1  ZINC000375302598    0.1200
     50 H50        -9.7172   -0.5768   59.2544 H       1  ZINC000375302598    0.1200
     51 H51        -7.6918    0.7287   59.7613 H       1  ZINC000375302598    0.1200
     52 H52        -6.4825    1.8777   57.9501 H       1  ZINC000375302598    0.1200
     53 H53        -7.2962    1.7181   55.6316 H       1  ZINC000375302598    0.1200
     54 H54        -5.9844    3.1164   50.0946 H       1  ZINC000375302598    0.0400
     55 H55        -5.4535    1.4241   49.9474 H       1  ZINC000375302598    0.0900
@<TRIPOS>BOND
     1     1     2    1
     2     1    31    1
     3     1    32    1
     4     1    33    1
     5     2     3    1
     6     2    34    1
     7     2    35    1
     8     3    30    1
     9     3     4    2
    10     4     5    1
    11     5     6    1
    12     5    29    2
    13     6     7    1
    14     6    36    1
    15     6    37    1
    16     7    28    1
    17     7     8    1
    18     8     9    1
    19     8    38    1
    20     8    39    1
    21     9    10    1
    22     9    40    1
    23     9    41    1
    24    10    11    1
    25    10    42    1
    26    10    43    1
    27    11    12    1
    28    11    13    1
    29    11    28    1
    30    13    14   am
    31    13    44    1
    32    14    15    2
    33    14    16    1
    34    16    17    1
    35    16    45    1
    36    16    46    1
    37    17    18    1
    38    17    20    1
    39    17    19    1
    40    19    20    1
    41    19    47    1
    42    19    48    1
    43    20    21    1
    44    20    22    1
    45    22    27   ar
    46    22    23   ar
    47    23    24   ar
    48    23    49    1
    49    24    25   ar
    50    24    50    1
    51    25    26   ar
    52    25    51    1
    53    26    27   ar
    54    26    52    1
    55    27    53    1
    56    28    54    1
    57    28    55    1
    58    29    30    1
@<TRIPOS>SUBSTRUCTURE
     1 ZINC000375302598        1 TEMP              0 ****  ****    0 ROOT


##########                                Name:    ZINC000506566356
##########                DOCK_Rotatable_Bonds:                  10
##########                         Heavy_Atoms:                  28
##########                    Molecular_Weight:               415.9
##########                DOCK_Rotatable_Bonds:                  10
##########                       Formal_Charge:           0.0199998
##########                     HBond_Acceptors:                   8
##########                        HBond_Donors:                   2
##########                         Heavy_Atoms:                  28
##########                          Grid_Score:          -34.513004
##########                     Grid_vdw_energy:          -33.554367
##########                      Grid_es_energy:           -0.958637
##########           Internal_energy_repulsive:           11.047129

@<TRIPOS>MOLECULE
ZINC000506566356
 46 48 1 0 0
SMALL
USER_CHARGES


@<TRIPOS>ATOM
      1 O1         -6.4477   -0.2540   50.5410 O.2     1  ZINC000506566356   -0.5100
      2 C2         -6.9128    0.7970   50.9309 C.2     1  ZINC000506566356    0.5100
      3 N3         -6.3580    1.9634   50.5462 N.am    1  ZINC000506566356   -0.7000
      4 C4         -5.1898    1.9626   49.6622 C.3     1  ZINC000506566356    0.1200
      5 C5         -3.9128    1.9910   50.5045 C.3     1  ZINC000506566356   -0.0900
      6 C6         -2.7182    1.7678   49.6133 C.ar    1  ZINC000506566356   -0.0700
      7 C7         -1.5045    1.4010   50.1638 C.ar    1  ZINC000506566356   -0.1100
      8 C8         -0.4082    1.1956   49.3468 C.ar    1  ZINC000506566356   -0.1000
      9 C9         -0.5251    1.3574   47.9793 C.ar    1  ZINC000506566356   -0.1100
     10 C10        -1.7398    1.7247   47.4278 C.ar    1  ZINC000506566356   -0.0300
     11 Cl11       -1.8875    1.9277   45.7100 Cl      1  ZINC000506566356   -0.0700
     12 C12        -2.8377    1.9245   48.2451 C.ar    1  ZINC000506566356   -0.1000
     13 C13        -8.1036    0.7979   51.8320 C.2     1  ZINC000506566356    0.5100
     14 O14        -8.7728    1.8034   51.9525 O.2     1  ZINC000506566356   -0.5000
     15 N15        -8.4354   -0.3178   52.5115 N.am    1  ZINC000506566356   -0.6300
     16 C16        -9.5508   -0.3171   53.3556 C.ar    1  ZINC000506566356    0.1100
     17 C17       -10.8285   -0.3958   52.8202 C.ar    1  ZINC000506566356   -0.0800
     18 C18       -11.9289   -0.3948   53.6565 C.ar    1  ZINC000506566356   -0.1400
     19 C19       -11.7604   -0.3154   55.0264 C.ar    1  ZINC000506566356   -0.0900
     20 C20       -10.4904   -0.2361   55.5677 C.ar    1  ZINC000506566356   -0.1900
     21 C21        -9.3817   -0.2428   54.7374 C.ar    1  ZINC000506566356    0.1200
     22 O22        -8.1323   -0.1649   55.2679 O.3     1  ZINC000506566356   -0.3100
     23 C23        -7.5639    1.1395   55.4003 C.3     1  ZINC000506566356    0.1400
     24 C24        -7.4053    1.4725   56.8614 C.2     1  ZINC000506566356    0.0500
     25 C25        -6.6806    2.5094   57.2920 C.2     1  ZINC000506566356   -0.2300
     26 S26        -6.7615    2.5339   59.0520 S.3     1  ZINC000506566356    0.1400
     27 C27        -7.7619    1.1474   59.0338 C.2     1  ZINC000506566356    0.0200
     28 N28        -7.9745    0.7683   57.8189 N.2     1  ZINC000506566356   -0.4700
     29 H29        -6.7321    2.8036   50.8547 H       1  ZINC000506566356    0.4200
     30 H30        -5.1998    1.0624   49.0477 H       1  ZINC000506566356    0.0800
     31 H31        -5.2203    2.8420   49.0189 H       1  ZINC000506566356    0.0800
     32 H32        -3.8234    2.9597   50.9962 H       1  ZINC000506566356    0.0900
     33 H33        -3.9566    1.2040   51.2573 H       1  ZINC000506566356    0.0900
     34 H34        -1.4125    1.2750   51.2325 H       1  ZINC000506566356    0.1300
     35 H35         0.5398    0.9089   49.7775 H       1  ZINC000506566356    0.1300
     36 H36         0.3316    1.1977   47.3414 H       1  ZINC000506566356    0.1300
     37 H37        -3.7861    2.2111   47.8151 H       1  ZINC000506566356    0.1300
     38 H38        -7.9006   -1.1215   52.4151 H       1  ZINC000506566356    0.4300
     39 H39       -10.9630   -0.4576   51.7505 H       1  ZINC000506566356    0.1500
     40 H40       -12.9229   -0.4557   53.2387 H       1  ZINC000506566356    0.1300
     41 H41       -12.6234   -0.3150   55.6759 H       1  ZINC000506566356    0.1300
     42 H42       -10.3626   -0.1735   56.6383 H       1  ZINC000506566356    0.1400
     43 H43        -6.5883    1.1616   54.9146 H       1  ZINC000506566356    0.0900
     44 H44        -8.2206    1.8714   54.9300 H       1  ZINC000506566356    0.0900
     45 H45        -6.1407    3.2088   56.6711 H       1  ZINC000506566356    0.1800
     46 H46        -8.1617    0.6620   59.9118 H       1  ZINC000506566356    0.2100
@<TRIPOS>BOND
     1     1     2    2
     2     2     3   am
     3     2    13    1
     4     3     4    1
     5     3    29    1
     6     4     5    1
     7     4    30    1
     8     4    31    1
     9     5     6    1
    10     5    32    1
    11     5    33    1
    12     6    12   ar
    13     6     7   ar
    14     7     8   ar
    15     7    34    1
    16     8     9   ar
    17     8    35    1
    18     9    10   ar
    19     9    36    1
    20    10    11    1
    21    10    12   ar
    22    12    37    1
    23    13    14    2
    24    13    15   am
    25    15    16    1
    26    15    38    1
    27    16    21   ar
    28    16    17   ar
    29    17    18   ar
    30    17    39    1
    31    18    19   ar
    32    18    40    1
    33    19    20   ar
    34    19    41    1
    35    20    21   ar
    36    20    42    1
    37    21    22    1
    38    22    23    1
    39    23    24    1
    40    23    43    1
    41    23    44    1
    42    24    28    1
    43    24    25    2
    44    25    26    1
    45    25    45    1
    46    26    27    1
    47    27    28    2
    48    27    46    1
@<TRIPOS>SUBSTRUCTURE
     1 ZINC000506566356        1 TEMP              0 ****  ****    0 ROOT


##########                                Name:    ZINC000523153175
##########                DOCK_Rotatable_Bonds:                   9
##########                         Heavy_Atoms:                  30
##########                    Molecular_Weight:             413.603
##########                DOCK_Rotatable_Bonds:                   9
##########                       Formal_Charge:           0.0499987
##########                     HBond_Acceptors:                   5
##########                        HBond_Donors:                   1
##########                         Heavy_Atoms:                  30
##########                          Grid_Score:          -34.460739
##########                     Grid_vdw_energy:          -34.093388
##########                      Grid_es_energy:           -0.367353
##########           Internal_energy_repulsive:           30.740055

@<TRIPOS>MOLECULE
ZINC000523153175
 69 71 1 0 0
SMALL
USER_CHARGES


@<TRIPOS>ATOM
      1 C1         -0.8093   -0.2018   45.8892 C.3     1  ZINC000523153175   -0.1500
      2 C2         -0.5934    1.2804   46.2012 C.3     1  ZINC000523153175   -0.0600
      3 C3         -0.9634    2.1187   44.9760 C.3     1  ZINC000523153175   -0.1400
      4 C4         -1.4631    1.6806   47.3650 C.ar    1  ZINC000523153175   -0.0800
      5 C5         -0.9224    1.7671   48.6343 C.ar    1  ZINC000523153175   -0.1100
      6 C6         -1.7202    2.1343   49.7019 C.ar    1  ZINC000523153175   -0.1100
      7 C7         -3.0586    2.4152   49.5001 C.ar    1  ZINC000523153175   -0.0800
      8 C8         -3.9285    2.8149   50.6640 C.3     1  ZINC000523153175   -0.0300
      9 H9         -3.3074    2.9640   51.5473 H       1  ZINC000523153175    0.0800
     10 C10        -4.6610    4.1159   50.3300 C.3     1  ZINC000523153175   -0.1500
     11 C11        -4.9506    1.7103   50.9397 C.3     1  ZINC000523153175   -0.1300
     12 C12        -5.4889    1.8620   52.3390 C.2     1  ZINC000523153175    0.5200
     13 O13        -5.1277    2.7906   53.0304 O.2     1  ZINC000523153175   -0.5300
     14 N14        -6.3717    0.9656   52.8223 N.am    1  ZINC000523153175   -0.6200
     15 C15        -6.9155    1.0994   54.1824 C.3     1  ZINC000523153175    0.1100
     16 C16        -8.4434    1.0125   54.1065 C.3     1  ZINC000523153175    0.0400
     17 N17        -8.8264   -0.2188   53.4028 N.3     1  ZINC000523153175   -0.5100
     18 C18       -10.2796   -0.4269   53.4587 C.3     1  ZINC000523153175    0.0600
     19 H19       -10.5881   -1.0606   52.6273 H       1  ZINC000523153175    0.1100
     20 C20       -10.6473   -1.1045   54.7802 C.3     1  ZINC000523153175   -0.1800
     21 C21       -10.9814    0.9034   53.3638 C.2     1  ZINC000523153175    0.5200
     22 O22       -11.2839    1.5029   54.3737 O.2     1  ZINC000523153175   -0.5200
     23 N23       -11.2729    1.4268   52.1565 N.am    1  ZINC000523153175   -0.7200
     24 C24       -11.9536    2.7208   52.0642 C.3     1  ZINC000523153175    0.1400
     25 C25       -11.5508    3.4380   50.7591 C.3     1  ZINC000523153175   -0.1300
     26 C26       -12.6809    3.0776   49.7632 C.3     1  ZINC000523153175   -0.1300
     27 C27       -13.9461    3.1090   50.6561 C.3     1  ZINC000523153175   -0.1300
     28 C28       -13.4767    2.5116   51.9986 C.3     1  ZINC000523153175   -0.1300
     29 C29        -8.3490   -0.2092   52.0136 C.3     1  ZINC000523153175    0.0400
     30 C30        -6.8218   -0.1689   52.0016 C.3     1  ZINC000523153175    0.1200
     31 C31        -3.5989    2.3299   48.2306 C.ar    1  ZINC000523153175   -0.1100
     32 C32        -2.8002    1.9666   47.1624 C.ar    1  ZINC000523153175   -0.1200
     33 H33        -0.1803   -0.4913   45.0473 H       1  ZINC000523153175    0.0600
     34 H34        -0.5457   -0.7990   46.7620 H       1  ZINC000523153175    0.0600
     35 H35        -1.8559   -0.3710   45.6357 H       1  ZINC000523153175    0.0600
     36 H36         0.4532    1.4496   46.4546 H       1  ZINC000523153175    0.0800
     37 H37        -2.0099    1.9495   44.7226 H       1  ZINC000523153175    0.0600
     38 H38        -0.8097    3.1747   45.1984 H       1  ZINC000523153175    0.0600
     39 H39        -0.3343    1.8293   44.1342 H       1  ZINC000523153175    0.0600
     40 H40         0.1233    1.5477   48.7920 H       1  ZINC000523153175    0.1200
     41 H41        -1.2979    2.2012   50.6937 H       1  ZINC000523153175    0.1200
     42 H42        -5.2902    4.4050   51.1718 H       1  ZINC000523153175    0.0800
     43 H43        -3.9328    4.9028   50.1335 H       1  ZINC000523153175    0.0600
     44 H44        -5.2820    3.9667   49.4467 H       1  ZINC000523153175    0.0500
     45 H45        -5.7700    1.7869   50.2249 H       1  ZINC000523153175    0.0900
     46 H46        -4.4701    0.7372   50.8388 H       1  ZINC000523153175    0.0900
     47 H47        -6.5336    0.2943   54.8102 H       1  ZINC000523153175    0.0800
     48 H48        -6.6238    2.0630   54.6002 H       1  ZINC000523153175    0.0900
     49 H49        -8.8576    0.9990   55.1148 H       1  ZINC000523153175    0.0900
     50 H50        -8.8305    1.8759   53.5655 H       1  ZINC000523153175    0.0400
     51 H51       -10.3388   -0.4707   55.6117 H       1  ZINC000523153175    0.0700
     52 H52       -11.7255   -1.2587   54.8217 H       1  ZINC000523153175    0.0700
     53 H53       -10.1396   -2.0666   54.8489 H       1  ZINC000523153175    0.0700
     54 H54       -11.0320    0.9467   51.3488 H       1  ZINC000523153175    0.4000
     55 H55       -11.6984    3.3389   52.9249 H       1  ZINC000523153175    0.0900
     56 H56       -11.5080    4.5161   50.9138 H       1  ZINC000523153175    0.0700
     57 H57       -10.5918    3.0649   50.3993 H       1  ZINC000523153175    0.0700
     58 H58       -12.7491    3.8224   48.9703 H       1  ZINC000523153175    0.0700
     59 H59       -12.5262    2.0820   49.3472 H       1  ZINC000523153175    0.0700
     60 H60       -14.2903    4.1339   50.7941 H       1  ZINC000523153175    0.0700
     61 H61       -14.7354    2.4958   50.2209 H       1  ZINC000523153175    0.0700
     62 H62       -13.7094    1.4473   52.0355 H       1  ZINC000523153175    0.0700
     63 H63       -13.9606    3.0289   52.8271 H       1  ZINC000523153175    0.0800
     64 H64        -8.6945   -1.1086   51.5041 H       1  ZINC000523153175    0.1000
     65 H65        -8.7374    0.6713   51.5017 H       1  ZINC000523153175    0.0400
     66 H66        -6.4668   -0.0461   50.9783 H       1  ZINC000523153175    0.1000
     67 H67        -6.4277   -1.0950   52.4201 H       1  ZINC000523153175    0.0800
     68 H68        -4.6445    2.5498   48.0729 H       1  ZINC000523153175    0.1200
     69 H69        -3.2224    1.9000   46.1706 H       1  ZINC000523153175    0.1200
@<TRIPOS>BOND
     1     1     2    1
     2     1    33    1
     3     1    34    1
     4     1    35    1
     5     2     3    1
     6     2     4    1
     7     2    36    1
     8     3    37    1
     9     3    38    1
    10     3    39    1
    11     4    32   ar
    12     4     5   ar
    13     5     6   ar
    14     5    40    1
    15     6     7   ar
    16     6    41    1
    17     7     8    1
    18     7    31   ar
    19     8     9    1
    20     8    10    1
    21     8    11    1
    22    10    42    1
    23    10    43    1
    24    10    44    1
    25    11    12    1
    26    11    45    1
    27    11    46    1
    28    12    13    2
    29    12    14   am
    30    14    30    1
    31    14    15    1
    32    15    16    1
    33    15    47    1
    34    15    48    1
    35    16    17    1
    36    16    49    1
    37    16    50    1
    38    17    18    1
    39    17    29    1
    40    18    19    1
    41    18    20    1
    42    18    21    1
    43    20    51    1
    44    20    52    1
    45    20    53    1
    46    21    22    2
    47    21    23   am
    48    23    24    1
    49    23    54    1
    50    24    28    1
    51    24    25    1
    52    24    55    1
    53    25    26    1
    54    25    56    1
    55    25    57    1
    56    26    27    1
    57    26    58    1
    58    26    59    1
    59    27    28    1
    60    27    60    1
    61    27    61    1
    62    28    62    1
    63    28    63    1
    64    29    30    1
    65    29    64    1
    66    29    65    1
    67    30    66    1
    68    30    67    1
    69    31    32   ar
    70    31    68    1
    71    32    69    1
@<TRIPOS>SUBSTRUCTURE
     1 ZINC000523153175        1 TEMP              0 ****  ****    0 ROOT


##########                                Name:    ZINC000744839011
##########                DOCK_Rotatable_Bonds:                  10
##########                         Heavy_Atoms:                  24
##########                    Molecular_Weight:              378.83
##########                DOCK_Rotatable_Bonds:                  10
##########                       Formal_Charge:           0.0300002
##########                     HBond_Acceptors:                   9
##########                        HBond_Donors:                   0
##########                         Heavy_Atoms:                  24
##########                          Grid_Score:          -34.439457
##########                     Grid_vdw_energy:          -33.142509
##########                      Grid_es_energy:           -1.296948
##########           Internal_energy_repulsive:            8.575846

@<TRIPOS>MOLECULE
ZINC000744839011
 43 43 1 0 0
SMALL
USER_CHARGES


@<TRIPOS>ATOM
      1 C1         -1.4161   -1.4335   45.8473 C.3     1  ZINC000744839011    0.0400
      2 O2         -1.2406   -0.3031   44.9530 O.3     1  ZINC000744839011   -0.3600
      3 C3         -0.8367    0.8574   45.5059 C.2     1  ZINC000744839011    0.5100
      4 O4          0.0103    1.5312   44.9535 O.2     1  ZINC000744839011   -0.5000
      5 C5         -1.4224    1.3096   46.7815 C.ar    1  ZINC000744839011   -0.1600
      6 C6         -2.6691    1.9411   46.7952 C.ar    1  ZINC000744839011   -0.0100
      7 C7         -3.2132    2.3617   47.9884 C.ar    1  ZINC000744839011   -0.2100
      8 C8         -2.5247    2.1592   49.1783 C.ar    1  ZINC000744839011    0.1800
      9 O9         -3.0647    2.5754   50.3519 O.3     1  ZINC000744839011   -0.2900
     10 C10        -4.0159    1.7078   50.9720 C.3     1  ZINC000744839011    0.0500
     11 C11        -5.4272    2.0984   50.5286 C.3     1  ZINC000744839011    0.0600
     12 O12        -6.3888    1.6410   51.5157 O.3     1  ZINC000744839011   -0.3400
     13 C13        -6.6066    0.3185   51.5872 C.2     1  ZINC000744839011    0.5000
     14 O14        -6.3906   -0.3820   50.6267 O.2     1  ZINC000744839011   -0.4900
     15 C15        -7.1205   -0.2927   52.8652 C.3     1  ZINC000744839011   -0.6400
     16 S16        -8.9335   -0.2351   52.8768 S.o2    1  ZINC000744839011    2.4400
     17 O17        -9.3428    1.1224   52.9707 O.2     1  ZINC000744839011   -0.9100
     18 O18        -9.4186   -1.0336   51.8060 O.2     1  ZINC000744839011   -0.9100
     19 C19        -9.3249   -1.0664   54.4408 C.3     1  ZINC000744839011   -0.5700
     20 C20        -8.7242   -0.2739   55.6038 C.3     1  ZINC000744839011   -0.1500
     21 C21       -10.8434   -1.1473   54.6093 C.3     1  ZINC000744839011   -0.1500
     22 C22        -1.2836    1.5306   49.1698 C.ar    1  ZINC000744839011   -0.0800
     23 Cl23       -0.4284    1.2800   50.6598 Cl      1  ZINC000744839011   -0.0400
     24 C24        -0.7346    1.1026   47.9811 C.ar    1  ZINC000744839011   -0.0100
     25 H25        -0.4698   -1.6575   46.3399 H       1  ZINC000744839011    0.0700
     26 H26        -2.1677   -1.1896   46.5981 H       1  ZINC000744839011    0.0700
     27 H27        -1.7424   -2.3021   45.2753 H       1  ZINC000744839011    0.1100
     28 H28        -3.2051    2.0994   45.8710 H       1  ZINC000744839011    0.1500
     29 H29        -4.1765    2.8500   47.9994 H       1  ZINC000744839011    0.1500
     30 H30        -3.8145    0.6779   50.6774 H       1  ZINC000744839011    0.0900
     31 H31        -3.9375    1.7977   52.0554 H       1  ZINC000744839011    0.1000
     32 H32        -5.4913    3.1825   50.4340 H       1  ZINC000744839011    0.1100
     33 H33        -5.6467    1.6362   49.5662 H       1  ZINC000744839011    0.0900
     34 H34        -6.7894   -1.3291   52.9312 H       1  ZINC000744839011    0.1700
     35 H35        -6.7337    0.2671   53.7168 H       1  ZINC000744839011    0.1700
     36 H36        -8.9061   -2.0727   54.4323 H       1  ZINC000744839011    0.1400
     37 H37        -8.9594   -0.7734   56.5436 H       1  ZINC000744839011    0.0900
     38 H38        -7.6424   -0.2163   55.4837 H       1  ZINC000744839011    0.0700
     39 H39        -9.1431    0.7324   55.6124 H       1  ZINC000744839011    0.0800
     40 H40       -11.2713   -1.7118   53.7809 H       1  ZINC000744839011    0.0800
     41 H41       -11.0786   -1.6467   55.5492 H       1  ZINC000744839011    0.0900
     42 H42       -11.2622   -0.1410   54.6180 H       1  ZINC000744839011    0.0800
     43 H43         0.2289    0.6148   47.9749 H       1  ZINC000744839011    0.1600
@<TRIPOS>BOND
     1     1     2    1
     2     1    25    1
     3     1    26    1
     4     1    27    1
     5     2     3    1
     6     3     4    2
     7     3     5    1
     8     5    24   ar
     9     5     6   ar
    10     6     7   ar
    11     6    28    1
    12     7     8   ar
    13     7    29    1
    14     8     9    1
    15     8    22   ar
    16     9    10    1
    17    10    11    1
    18    10    30    1
    19    10    31    1
    20    11    12    1
    21    11    32    1
    22    11    33    1
    23    12    13    1
    24    13    14    2
    25    13    15    1
    26    15    16    1
    27    15    34    1
    28    15    35    1
    29    16    17    2
    30    16    18    2
    31    16    19    1
    32    19    20    1
    33    19    21    1
    34    19    36    1
    35    20    37    1
    36    20    38    1
    37    20    39    1
    38    21    40    1
    39    21    41    1
    40    21    42    1
    41    22    23    1
    42    22    24   ar
    43    24    43    1
@<TRIPOS>SUBSTRUCTURE
     1 ZINC000744839011        1 TEMP              0 ****  ****    0 ROOT


##########                                Name:    ZINC000807524472
##########                DOCK_Rotatable_Bonds:                   9
##########                         Heavy_Atoms:                  28
##########                    Molecular_Weight:             410.534
##########                DOCK_Rotatable_Bonds:                   9
##########                       Formal_Charge:           0.0200006
##########                     HBond_Acceptors:                   8
##########                        HBond_Donors:                   0
##########                         Heavy_Atoms:                  28
##########                          Grid_Score:          -34.389332
##########                     Grid_vdw_energy:          -32.905331
##########                      Grid_es_energy:           -1.484001
##########           Internal_energy_repulsive:           17.099155

@<TRIPOS>MOLECULE
ZINC000807524472
 58 60 1 0 0
SMALL
USER_CHARGES


@<TRIPOS>ATOM
      1 C1         -7.6198    1.7435   53.3605 C.3     1  ZINC000807524472   -0.1500
      2 C2         -8.4592    0.9066   54.3280 C.3     1  ZINC000807524472    0.0600
      3 O3         -8.3747    1.4673   55.6396 O.3     1  ZINC000807524472   -0.3800
      4 C4         -7.0514    1.4878   56.1788 C.3     1  ZINC000807524472    0.0600
      5 C5         -7.1096    1.8713   57.6588 C.3     1  ZINC000807524472    0.0700
      6 O6         -7.6047    0.7459   58.4312 O.3     1  ZINC000807524472   -0.3500
      7 C7         -8.9117    0.7569   58.7598 C.2     1  ZINC000807524472    0.5000
      8 O8         -9.5416    1.7950   58.7110 O.2     1  ZINC000807524472   -0.4600
      9 C9         -9.5765   -0.4891   59.1780 C.ar    1  ZINC000807524472   -0.1200
     10 C10        -9.9749   -1.4285   58.2230 C.ar    1  ZINC000807524472    0.0400
     11 C11       -10.5958   -2.5921   58.6210 C.ar    1  ZINC000807524472   -0.7000
     12 S12       -11.0964   -3.7748   57.4147 S.o2    1  ZINC000807524472    2.6900
     13 O13       -10.4672   -3.3976   56.1976 O.2     1  ZINC000807524472   -0.9500
     14 O14       -10.9291   -5.0531   58.0124 O.2     1  ZINC000807524472   -0.9500
     15 N15       -12.7238   -3.5775   57.1805 N.am    1  ZINC000807524472   -0.9900
     16 C16       -13.6579   -4.6790   57.4501 C.3     1  ZINC000807524472    0.1200
     17 C17       -14.7445   -4.1810   58.4083 C.3     1  ZINC000807524472   -0.1400
     18 C18       -15.4012   -2.9291   57.8219 C.3     1  ZINC000807524472   -0.1200
     19 C19       -14.3521   -1.8260   57.6659 C.3     1  ZINC000807524472   -0.1400
     20 C20       -13.2617   -2.2955   56.7051 C.3     1  ZINC000807524472    0.1200
     21 C21       -10.8284   -2.8376   59.9649 C.ar    1  ZINC000807524472    0.0200
     22 C22       -10.4416   -1.9202   60.9203 C.ar    1  ZINC000807524472   -0.1800
     23 C23        -9.8090   -0.7435   60.5396 C.ar    1  ZINC000807524472    0.2000
     24 N24        -9.4184    0.1810   61.4989 N.3     1  ZINC000807524472   -0.4800
     25 C25       -10.5830    0.6464   62.2948 C.3     1  ZINC000807524472    0.0400
     26 C26        -9.9305    1.2087   63.5826 C.3     1  ZINC000807524472   -0.1200
     27 C27        -8.7644    0.2259   63.8367 C.3     1  ZINC000807524472   -0.1300
     28 C28        -8.4830   -0.4262   62.4703 C.3     1  ZINC000807524472    0.0400
     29 H29        -6.5804    1.7448   53.6889 H       1  ZINC000807524472    0.0600
     30 H30        -7.6843    1.3159   52.3601 H       1  ZINC000807524472    0.0700
     31 H31        -7.9966    2.7662   53.3436 H       1  ZINC000807524472    0.0700
     32 H32        -9.4986    0.9055   53.9997 H       1  ZINC000807524472    0.0500
     33 H33        -8.0824   -0.1160   54.3449 H       1  ZINC000807524472    0.0500
     34 H34        -6.6022    0.4999   56.0768 H       1  ZINC000807524472    0.0600
     35 H35        -6.4499    2.2182   55.6376 H       1  ZINC000807524472    0.0700
     36 H36        -6.1108    2.1379   58.0045 H       1  ZINC000807524472    0.0900
     37 H37        -7.7781    2.7225   57.7876 H       1  ZINC000807524472    0.0800
     38 H38        -9.7965   -1.2422   57.1743 H       1  ZINC000807524472    0.1600
     39 H39       -14.1158   -5.0064   56.5167 H       1  ZINC000807524472    0.0800
     40 H40       -13.1206   -5.5101   57.9071 H       1  ZINC000807524472    0.0900
     41 H41       -15.4968   -4.9583   58.5409 H       1  ZINC000807524472    0.0800
     42 H42       -14.2965   -3.9392   59.3722 H       1  ZINC000807524472    0.0700
     43 H43       -15.8273   -3.1655   56.8469 H       1  ZINC000807524472    0.0700
     44 H44       -16.1915   -2.5869   58.4901 H       1  ZINC000807524472    0.0700
     45 H45       -14.8251   -0.9273   57.2701 H       1  ZINC000807524472    0.0800
     46 H46       -13.9078   -1.6064   58.6367 H       1  ZINC000807524472    0.0700
     47 H47       -12.4635   -1.5541   56.6678 H       1  ZINC000807524472    0.0900
     48 H48       -13.6849   -2.4302   55.7097 H       1  ZINC000807524472    0.0800
     49 H49       -11.3160   -3.7529   60.2665 H       1  ZINC000807524472    0.1500
     50 H50       -10.6271   -2.1191   61.9655 H       1  ZINC000807524472    0.1400
     51 H51       -11.1235    1.4300   61.7637 H       1  ZINC000807524472    0.0900
     52 H52       -11.2450   -0.1866   62.5311 H       1  ZINC000807524472    0.0500
     53 H53        -9.5545    2.2181   63.4154 H       1  ZINC000807524472    0.0800
     54 H54       -10.6371    1.1915   64.4122 H       1  ZINC000807524472    0.0800
     55 H55        -7.8844    0.7654   64.1869 H       1  ZINC000807524472    0.0800
     56 H56        -9.0592   -0.5309   64.5636 H       1  ZINC000807524472    0.0700
     57 H57        -8.6549   -1.5010   62.5294 H       1  ZINC000807524472    0.0500
     58 H58        -7.4544   -0.2279   62.1691 H       1  ZINC000807524472    0.0900
@<TRIPOS>BOND
     1     1     2    1
     2     1    29    1
     3     1    30    1
     4     1    31    1
     5     2     3    1
     6     2    32    1
     7     2    33    1
     8     3     4    1
     9     4     5    1
    10     4    34    1
    11     4    35    1
    12     5     6    1
    13     5    36    1
    14     5    37    1
    15     6     7    1
    16     7     8    2
    17     7     9    1
    18     9    23   ar
    19     9    10   ar
    20    10    11   ar
    21    10    38    1
    22    11    12    1
    23    11    21   ar
    24    12    13    2
    25    12    14    2
    26    12    15   am
    27    15    20    1
    28    15    16    1
    29    16    17    1
    30    16    39    1
    31    16    40    1
    32    17    18    1
    33    17    41    1
    34    17    42    1
    35    18    19    1
    36    18    43    1
    37    18    44    1
    38    19    20    1
    39    19    45    1
    40    19    46    1
    41    20    47    1
    42    20    48    1
    43    21    22   ar
    44    21    49    1
    45    22    23   ar
    46    22    50    1
    47    23    24    1
    48    24    28    1
    49    24    25    1
    50    25    26    1
    51    25    51    1
    52    25    52    1
    53    26    27    1
    54    26    53    1
    55    26    54    1
    56    27    28    1
    57    27    55    1
    58    27    56    1
    59    28    57    1
    60    28    58    1
@<TRIPOS>SUBSTRUCTURE
     1 ZINC000807524472        1 TEMP              0 ****  ****    0 ROOT


##########                                Name:    ZINC000981700465
##########                DOCK_Rotatable_Bonds:                   9
##########                         Heavy_Atoms:                  26
##########                    Molecular_Weight:             356.428
##########                DOCK_Rotatable_Bonds:                   9
##########                       Formal_Charge:               -0.01
##########                     HBond_Acceptors:                   8
##########                        HBond_Donors:                   3
##########                         Heavy_Atoms:                  26
##########                          Grid_Score:          -34.372540
##########                     Grid_vdw_energy:          -32.896111
##########                      Grid_es_energy:           -1.476428
##########           Internal_energy_repulsive:           10.636498

@<TRIPOS>MOLECULE
ZINC000981700465
 50 52 1 0 0
SMALL
USER_CHARGES


@<TRIPOS>ATOM
      1 C1         -9.0974    3.3333   55.1976 C.3     1  ZINC000981700465   -0.1500
      2 C2         -7.9442    2.9128   56.1111 C.3     1  ZINC000981700465   -0.1100
      3 C3         -7.2582    1.6750   55.5295 C.3     1  ZINC000981700465   -0.0500
      4 C4         -8.2534    0.5474   55.4340 C.2     1  ZINC000981700465    0.1400
      5 N5         -9.0094    0.1080   56.4021 N.2     1  ZINC000981700465   -0.2900
      6 N6         -9.7953   -0.9450   55.9211 N.pl3   1  ZINC000981700465   -0.4600
      7 C7         -9.4995   -1.1402   54.6261 C.2     1  ZINC000981700465    0.1000
      8 C8         -8.5358   -0.2151   54.2785 C.2     1  ZINC000981700465   -0.2900
      9 C9         -7.9105   -0.0587   52.9525 C.2     1  ZINC000981700465    0.5900
     10 O10        -7.2814   -0.9778   52.4646 O.2     1  ZINC000981700465   -0.5300
     11 N11        -8.0363    1.1031   52.2810 N.am    1  ZINC000981700465   -0.7300
     12 C12        -7.4136    1.2592   50.9642 C.3     1  ZINC000981700465    0.1300
     13 C13        -6.1756    2.1497   51.0878 C.3     1  ZINC000981700465   -0.1100
     14 H14        -6.3348    2.9200   51.8424 H       1  ZINC000981700465    0.0900
     15 C15        -4.9287    1.2993   51.4357 C.3     1  ZINC000981700465   -0.1200
     16 C16        -3.7608    2.1830   50.9315 C.3     1  ZINC000981700465   -0.1300
     17 C17        -4.2955    2.8083   49.6266 C.3     1  ZINC000981700465    0.1400
     18 H18        -3.9416    3.8349   49.5320 H       1  ZINC000981700465    0.1000
     19 N19        -3.8553    2.0179   48.4743 N.am    1  ZINC000981700465   -0.7100
     20 C20        -2.6066    2.1700   47.9903 C.2     1  ZINC000981700465    0.5600
     21 O21        -1.8465    2.9638   48.5088 O.2     1  ZINC000981700465   -0.5200
     22 C22        -2.1609    1.3696   46.8263 C.ar    1  ZINC000981700465   -0.1400
     23 C23        -1.4361    0.1832   46.9976 C.ar    1  ZINC000981700465   -0.0600
     24 C24        -1.0542   -0.5111   45.8611 C.ar    1  ZINC000981700465    0.0400
     25 N25        -1.3750   -0.0493   44.6681 N.ar    1  ZINC000981700465   -0.2200
     26 N26        -2.0384    1.0363   44.5043 N.ar    1  ZINC000981700465   -0.2400
     27 C27        -2.4540    1.7689   45.5193 C.ar    1  ZINC000981700465    0.0700
     28 C28        -5.8330    2.7899   49.7267 C.3     1  ZINC000981700465   -0.1200
     29 H29        -9.8183    2.5191   55.1243 H       1  ZINC000981700465    0.0600
     30 H30        -9.5860    4.2151   55.6119 H       1  ZINC000981700465    0.0600
     31 H31        -8.7093    3.5653   54.2058 H       1  ZINC000981700465    0.0500
     32 H32        -7.2232    3.7270   56.1843 H       1  ZINC000981700465    0.0600
     33 H33        -8.3323    2.6808   57.1029 H       1  ZINC000981700465    0.0600
     34 H34        -6.8740    1.9057   54.5359 H       1  ZINC000981700465    0.1000
     35 H35        -6.4340    1.3781   56.1779 H       1  ZINC000981700465    0.0800
     36 H36       -10.4445   -1.4490   56.4363 H       1  ZINC000981700465    0.4500
     37 H37        -9.9382   -1.8817   53.9749 H       1  ZINC000981700465    0.1800
     38 H38        -8.5392    1.8359   52.6697 H       1  ZINC000981700465    0.4000
     39 H39        -7.1210    0.2811   50.5824 H       1  ZINC000981700465    0.0700
     40 H40        -8.1249    1.7190   50.2781 H       1  ZINC000981700465    0.0700
     41 H41        -4.8570    1.1413   52.5118 H       1  ZINC000981700465    0.0700
     42 H42        -4.9499    0.3475   50.9050 H       1  ZINC000981700465    0.0700
     43 H43        -3.5286    2.9601   51.6597 H       1  ZINC000981700465    0.0800
     44 H44        -2.8805    1.5729   50.7295 H       1  ZINC000981700465    0.0700
     45 H45        -4.4623    1.3852   48.0597 H       1  ZINC000981700465    0.4000
     46 H46        -1.1829   -0.1782   47.9834 H       1  ZINC000981700465    0.1700
     47 H47        -0.4940   -1.4300   45.9520 H       1  ZINC000981700465    0.1800
     48 H48        -3.0106    2.6771   45.3413 H       1  ZINC000981700465    0.1700
     49 H49        -6.2526    2.1914   48.9182 H       1  ZINC000981700465    0.0800
     50 H50        -6.2224    3.8069   49.6799 H       1  ZINC000981700465    0.0800
@<TRIPOS>BOND
     1     1     2    1
     2     1    29    1
     3     1    30    1
     4     1    31    1
     5     2     3    1
     6     2    32    1
     7     2    33    1
     8     3     4    1
     9     3    34    1
    10     3    35    1
    11     4     8    1
    12     4     5    2
    13     5     6    1
    14     6     7    1
    15     6    36    1
    16     7     8    2
    17     7    37    1
    18     8     9    1
    19     9    10    2
    20     9    11   am
    21    11    12    1
    22    11    38    1
    23    12    13    1
    24    12    39    1
    25    12    40    1
    26    13    14    1
    27    13    28    1
    28    13    15    1
    29    15    16    1
    30    15    41    1
    31    15    42    1
    32    16    17    1
    33    16    43    1
    34    16    44    1
    35    17    18    1
    36    17    19    1
    37    17    28    1
    38    19    20   am
    39    19    45    1
    40    20    21    2
    41    20    22    1
    42    22    27   ar
    43    22    23   ar
    44    23    24   ar
    45    23    46    1
    46    24    25   ar
    47    24    47    1
    48    25    26   ar
    49    26    27   ar
    50    27    48    1
    51    28    49    1
    52    28    50    1
@<TRIPOS>SUBSTRUCTURE
     1 ZINC000981700465        1 TEMP              0 ****  ****    0 ROOT


##########                                Name:    ZINC000031496632
##########                DOCK_Rotatable_Bonds:                   8
##########                         Heavy_Atoms:                  30
##########                    Molecular_Weight:             423.539
##########                DOCK_Rotatable_Bonds:                   8
##########                       Formal_Charge:          -0.0100009
##########                     HBond_Acceptors:                   8
##########                        HBond_Donors:                   1
##########                         Heavy_Atoms:                  30
##########                          Grid_Score:          -34.353096
##########                     Grid_vdw_energy:          -33.251801
##########                      Grid_es_energy:           -1.101297
##########           Internal_energy_repulsive:            8.371214

@<TRIPOS>MOLECULE
ZINC000031496632
 55 58 1 0 0
SMALL
USER_CHARGES


@<TRIPOS>ATOM
      1 C1         -2.7393    2.1312   48.1915 C.3     1  ZINC000031496632   -0.1600
      2 C2         -3.2345    1.7751   49.5946 C.3     1  ZINC000031496632    0.1600
      3 C3         -2.3561    2.4699   50.6370 C.3     1  ZINC000031496632   -0.1600
      4 N4         -4.6217    2.2199   49.7504 N.pl3   1  ZINC000031496632   -0.3900
      5 N5         -5.2384    3.2265   49.0011 N.2     1  ZINC000031496632   -0.2300
      6 C6         -6.4731    3.3786   49.3865 C.2     1  ZINC000031496632    0.0800
      7 C7         -6.7225    2.4242   50.4613 C.ar    1  ZINC000031496632   -0.2100
      8 C8         -7.8334    2.1191   51.2561 C.ar    1  ZINC000031496632    0.0100
      9 C9         -7.6979    1.1209   52.2082 C.ar    1  ZINC000031496632    0.0500
     10 N10        -8.7788    0.7757   53.0299 N.am    1  ZINC000031496632   -0.6600
     11 C11        -9.5906   -0.2427   52.6834 C.2     1  ZINC000031496632    0.5500
     12 O12        -9.3848   -0.8622   51.6571 O.2     1  ZINC000031496632   -0.4900
     13 C13       -10.7276   -0.6057   53.5477 C.ar    1  ZINC000031496632   -0.1300
     14 C14       -10.5424   -1.4770   54.6240 C.ar    1  ZINC000031496632   -0.0600
     15 C15       -11.6095   -1.8126   55.4283 C.ar    1  ZINC000031496632   -0.1400
     16 C16       -12.8686   -1.2907   55.1760 C.ar    1  ZINC000031496632   -0.0600
     17 C17       -13.0687   -0.4294   54.1171 C.ar    1  ZINC000031496632   -0.1500
     18 C18       -12.0035   -0.0735   53.2982 C.ar    1  ZINC000031496632   -0.0600
     19 S19       -12.2553    1.0267   51.9452 S.3     1  ZINC000031496632    0.0900
     20 C20       -14.0057    0.7792   51.5383 C.3     1  ZINC000031496632   -0.2000
     21 C21       -14.3389    1.5308   50.2753 C.2     1  ZINC000031496632    0.5500
     22 O22       -14.6165    2.7102   50.3268 O.2     1  ZINC000031496632   -0.5200
     23 N23       -14.3286    0.8920   49.0885 N.am    1  ZINC000031496632   -0.6200
     24 C24       -14.0196   -0.5306   48.8837 C.3     1  ZINC000031496632    0.1000
     25 C25       -14.1060   -0.8047   47.3675 C.3     1  ZINC000031496632   -0.1300
     26 C26       -13.9042    0.6033   46.7478 C.3     1  ZINC000031496632   -0.1300
     27 C27       -14.6316    1.5029   47.7814 C.3     1  ZINC000031496632    0.1000
     28 C28        -6.4758    0.4634   52.3398 C.ar    1  ZINC000031496632    0.1600
     29 N29        -5.4468    0.7688   51.5808 N.ar    1  ZINC000031496632   -0.4900
     30 C30        -5.5218    1.7112   50.6494 C.ar    1  ZINC000031496632    0.3000
     31 H31        -1.7072    1.8004   48.0755 H       1  ZINC000031496632    0.0800
     32 H32        -3.3651    1.6362   47.4488 H       1  ZINC000031496632    0.0600
     33 H33        -2.7928    3.2107   48.0502 H       1  ZINC000031496632    0.0700
     34 H34        -3.1809    0.6956   49.7357 H       1  ZINC000031496632    0.1100
     35 H35        -1.3240    2.1391   50.5210 H       1  ZINC000031496632    0.0800
     36 H36        -2.4095    3.5495   50.4958 H       1  ZINC000031496632    0.0700
     37 H37        -2.7088    2.2164   51.6366 H       1  ZINC000031496632    0.0600
     38 H38        -7.1842    4.0844   48.9833 H       1  ZINC000031496632    0.2000
     39 H39        -8.7679    2.6460   51.1317 H       1  ZINC000031496632    0.1500
     40 H40        -8.9430    1.2698   53.8484 H       1  ZINC000031496632    0.4100
     41 H41        -9.5639   -1.8874   54.8252 H       1  ZINC000031496632    0.1300
     42 H42       -11.4643   -2.4862   56.2600 H       1  ZINC000031496632    0.1300
     43 H43       -13.6985   -1.5604   55.8124 H       1  ZINC000031496632    0.1300
     44 H44       -14.0531   -0.0277   53.9270 H       1  ZINC000031496632    0.1300
     45 H45       -14.1974   -0.2835   51.3900 H       1  ZINC000031496632    0.1100
     46 H46       -14.6245    1.1497   52.3555 H       1  ZINC000031496632    0.1100
     47 H47       -13.0132   -0.7467   49.2427 H       1  ZINC000031496632    0.0700
     48 H48       -14.7450   -1.1476   49.4140 H       1  ZINC000031496632    0.0700
     49 H49       -13.3124   -1.4822   47.0522 H       1  ZINC000031496632    0.0900
     50 H50       -15.0845   -1.2057   47.1034 H       1  ZINC000031496632    0.0800
     51 H51       -12.8453    0.8538   46.6836 H       1  ZINC000031496632    0.0800
     52 H52       -14.3803    0.6715   45.7697 H       1  ZINC000031496632    0.0900
     53 H53       -15.7057    1.5016   47.5960 H       1  ZINC000031496632    0.0700
     54 H54       -14.2401    2.5193   47.7416 H       1  ZINC000031496632    0.0800
     55 H55        -6.3720   -0.3141   53.0821 H       1  ZINC000031496632    0.1700
@<TRIPOS>BOND
     1     1     2    1
     2     1    31    1
     3     1    32    1
     4     1    33    1
     5     2     3    1
     6     2     4    1
     7     2    34    1
     8     3    35    1
     9     3    36    1
    10     3    37    1
    11     4    30    1
    12     4     5    1
    13     5     6    2
    14     6     7    1
    15     6    38    1
    16     7    30   ar
    17     7     8   ar
    18     8     9   ar
    19     8    39    1
    20     9    10    1
    21     9    28   ar
    22    10    11   am
    23    10    40    1
    24    11    12    2
    25    11    13    1
    26    13    18   ar
    27    13    14   ar
    28    14    15   ar
    29    14    41    1
    30    15    16   ar
    31    15    42    1
    32    16    17   ar
    33    16    43    1
    34    17    18   ar
    35    17    44    1
    36    18    19    1
    37    19    20    1
    38    20    21    1
    39    20    45    1
    40    20    46    1
    41    21    22    2
    42    21    23   am
    43    23    27    1
    44    23    24    1
    45    24    25    1
    46    24    47    1
    47    24    48    1
    48    25    26    1
    49    25    49    1
    50    25    50    1
    51    26    27    1
    52    26    51    1
    53    26    52    1
    54    27    53    1
    55    27    54    1
    56    28    29   ar
    57    28    55    1
    58    29    30   ar
@<TRIPOS>SUBSTRUCTURE
     1 ZINC000031496632        1 TEMP              0 ****  ****    0 ROOT


##########                                Name:     oleObject42.pdb
##########                DOCK_Rotatable_Bonds:                   9
##########                         Heavy_Atoms:                  36
##########                    Molecular_Weight:             527.493
##########                DOCK_Rotatable_Bonds:                   9
##########                       Formal_Charge:         9.99384e-05
##########                     HBond_Acceptors:                   8
##########                        HBond_Donors:                   0
##########                         Heavy_Atoms:                  36
##########                          Grid_Score:          -34.295330
##########                     Grid_vdw_energy:          -34.525238
##########                      Grid_es_energy:            0.229909
##########           Internal_energy_repulsive:           26.488571

@<TRIPOS>MOLECULE
oleObject42.pdb
 68 71 1 0 0
SMALL
NO_CHARGES


@<TRIPOS>ATOM
      1 C         -15.2557   -0.2364   61.5887 C.ar    1  UNL        -0.0435
      2 C         -15.2005   -1.6326   61.4693 C.ar    1  UNL        -0.0559
      3 C         -15.1225   -2.2094   60.1876 C.ar    1  UNL        -0.0272
      4 C         -15.1034   -1.3489   59.0610 C.ar    1  UNL         0.0699
      5 N         -15.1572   -0.0026   59.1908 N.ar    1  UNL        -0.2586
      6 C         -15.2311    0.5395   60.4206 C.ar    1  UNL         0.0272
      7 C         -15.0177   -1.8979   57.6266 C.3     1  UNL         0.1101
      8 C         -15.5596   -0.9190   56.5668 C.ar    1  UNL         0.0699
      9 C         -16.9511   -0.7825   56.3319 C.ar    1  UNL        -0.0272
     10 C         -17.3783    0.1221   55.3416 C.ar    1  UNL        -0.0559
     11 C         -16.4205    0.8525   54.6237 C.ar    1  UNL        -0.0435
     12 C         -15.0640    0.6530   54.9185 C.ar    1  UNL         0.0272
     13 N         -14.6458   -0.2105   55.8625 N.ar    1  UNL        -0.2586
     14 C         -17.9899   -1.5791   57.1140 C.3     1  UNL        -0.0379
     15 N         -13.6800   -2.4694   57.3072 N.am    1  UNL        -0.2902
     16 C         -12.4986   -1.7322   57.3966 C.2     1  UNL         0.2180
     17 O         -12.5378   -0.5163   57.4897 O.2     1  UNL        -0.2772
     18 C         -11.1823   -2.4616   57.0322 C.3     1  UNL         0.0385
     19 C         -10.7165   -3.3901   58.1796 C.3     1  UNL        -0.0289
     20 C         -10.1153   -2.6013   59.3626 C.3     1  UNL        -0.0010
     21 N          -9.0131   -1.7198   58.9209 N.4     1  UNL        -0.3010
     22 C          -9.3942   -0.7725   57.8499 C.3     1  UNL        -0.0010
     23 C         -10.0410   -1.4872   56.6390 C.3     1  UNL        -0.0289
     24 C          -8.2560   -1.1003   60.0312 C.3     1  UNL         0.0222
     25 C          -9.0663   -0.0669   60.8454 C.3     1  UNL         0.0661
     26 O          -9.7184   -0.7650   61.9178 O.3     1  UNL        -0.3432
     27 C         -10.2254   -0.0430   62.9701 C.ar    1  UNL         0.0937
     28 C         -11.5707    0.3609   62.9357 C.ar    1  UNL        -0.0288
     29 C         -12.1099    1.1025   63.9999 C.ar    1  UNL        -0.0408
     30 C         -11.3011    1.4423   65.0973 C.ar    1  UNL         0.0422
     31 C          -9.9541    1.0444   65.1323 C.ar    1  UNL        -0.0221
     32 C          -9.4129    0.3024   64.0688 C.ar    1  UNL         0.0723
     33 CL         -7.7273   -0.1777   64.1344 Cl      1  UNL        -0.0814
     34 CL        -11.9728    2.3667   66.4236 Cl      1  UNL        -0.0843
     35 C         -13.6665   -3.8264   56.7246 C.3     1  UNL         0.0038
     36 C         -15.0588   -3.7271   60.0549 C.3     1  UNL        -0.0379
     37 H         -15.3149    0.2351   62.5653 H       1  UNL         0.0639
     38 H         -15.2166   -2.2551   62.3595 H       1  UNL         0.0627
     39 H         -15.2709    1.6270   60.4693 H       1  UNL         0.0840
     40 H         -15.7071   -2.7459   57.6062 H       1  UNL         0.0643
     41 H         -18.4354    0.2585   55.1313 H       1  UNL         0.0627
     42 H         -16.7220    1.5581   53.8552 H       1  UNL         0.0639
     43 H         -14.2881    1.1999   54.3843 H       1  UNL         0.0840
     44 H         -17.8860   -2.6550   56.9267 H       1  UNL         0.0280
     45 H         -19.0116   -1.2956   56.8324 H       1  UNL         0.0280
     46 H         -17.8918   -1.4088   58.1931 H       1  UNL         0.0280
     47 H         -11.3638   -3.0843   56.1503 H       1  UNL         0.0402
     48 H          -9.9542   -4.0793   57.7937 H       1  UNL         0.0288
     49 H         -11.5494   -4.0090   58.5336 H       1  UNL         0.0288
     50 H          -9.7450   -3.3151   60.1096 H       1  UNL         0.0431
     51 H         -10.9087   -2.0067   59.8332 H       1  UNL         0.0431
     52 H          -8.5062   -0.2294   57.5020 H       1  UNL         0.0431
     53 H         -10.0972   -0.0283   58.2422 H       1  UNL         0.0431
     54 H          -9.2591   -2.0578   56.1212 H       1  UNL         0.0288
     55 H         -10.4117   -0.7446   55.9208 H       1  UNL         0.0288
     56 H          -7.3628   -0.6053   59.6292 H       1  UNL         0.0455
     57 H          -7.9090   -1.8864   60.7141 H       1  UNL         0.0455
     58 H          -9.8136    0.4160   60.2039 H       1  UNL         0.0586
     59 H          -8.3999    0.7046   61.2503 H       1  UNL         0.0586
     60 H         -12.1932    0.0984   62.0852 H       1  UNL         0.0652
     61 H         -13.1507    1.4128   63.9728 H       1  UNL         0.0639
     62 H          -9.3308    1.3113   65.9810 H       1  UNL         0.0655
     63 H         -14.5051   -4.4201   57.1093 H       1  UNL         0.0433
     64 H         -12.7322   -4.3382   56.9880 H       1  UNL         0.0433
     65 H         -13.7427   -3.7598   55.6321 H       1  UNL         0.0433
     66 H         -15.0445   -4.2177   61.0361 H       1  UNL         0.0280
     67 H         -14.1534   -4.0422   59.5222 H       1  UNL         0.0280
     68 H         -15.9289   -4.1132   59.5102 H       1  UNL         0.0280
@<TRIPOS>BOND
     1     1     2   ar
     2     1     6   ar
     3     1    37    1
     4     2     3   ar
     5     2    38    1
     6     3     4   ar
     7     3    36    1
     8     4     5   ar
     9     4     7    1
    10     5     6   ar
    11     6    39    1
    12     7     8    1
    13     7    15    1
    14     7    40    1
    15     8     9   ar
    16     8    13   ar
    17     9    10   ar
    18     9    14    1
    19    10    11   ar
    20    10    41    1
    21    11    12   ar
    22    11    42    1
    23    12    13   ar
    24    12    43    1
    25    14    44    1
    26    14    45    1
    27    14    46    1
    28    15    16   am
    29    15    35    1
    30    16    17    2
    31    16    18    1
    32    18    19    1
    33    18    23    1
    34    18    47    1
    35    19    20    1
    36    19    48    1
    37    19    49    1
    38    20    21    1
    39    20    50    1
    40    20    51    1
    41    21    22    1
    42    21    24    1
    43    22    23    1
    44    22    52    1
    45    22    53    1
    46    23    54    1
    47    23    55    1
    48    24    25    1
    49    24    56    1
    50    24    57    1
    51    25    26    1
    52    25    58    1
    53    25    59    1
    54    26    27    1
    55    27    28   ar
    56    27    32   ar
    57    28    29   ar
    58    28    60    1
    59    29    30   ar
    60    29    61    1
    61    30    31   ar
    62    30    34    1
    63    31    32   ar
    64    31    62    1
    65    32    33    1
    66    35    63    1
    67    35    64    1
    68    35    65    1
    69    36    66    1
    70    36    67    1
    71    36    68    1
@<TRIPOS>SUBSTRUCTURE
     1 UNL         1 TEMP              0 ****  ****    0 ROOT


##########                                Name:    ZINC001053433946
##########                DOCK_Rotatable_Bonds:                   6
##########                         Heavy_Atoms:                  24
##########                    Molecular_Weight:             337.419
##########                DOCK_Rotatable_Bonds:                   6
##########                       Formal_Charge:               -0.02
##########                     HBond_Acceptors:                   7
##########                        HBond_Donors:                   2
##########                         Heavy_Atoms:                  24
##########                          Grid_Score:          -34.294266
##########                     Grid_vdw_energy:          -32.464848
##########                      Grid_es_energy:           -1.829418
##########           Internal_energy_repulsive:           18.650585

@<TRIPOS>MOLECULE
ZINC001053433946
 51 54 1 0 0
SMALL
USER_CHARGES


@<TRIPOS>ATOM
      1 N1         -0.4257    2.9593   44.9254 N.am    1  ZINC001053433946   -0.8300
      2 C2          0.4250    2.0741   45.4813 C.2     1  ZINC001053433946    0.5600
      3 O3          1.4836    2.4534   45.9357 O.2     1  ZINC001053433946   -0.5500
      4 C4          0.0610    0.6128   45.5382 C.3     1  ZINC001053433946   -0.1600
      5 H5          0.8942   -0.0739   45.6874 H       1  ZINC001053433946    0.1400
      6 C6         -1.0964    0.1382   44.6572 C.3     1  ZINC001053433946   -0.1300
      7 C7         -1.2812    0.2433   46.1731 C.3     1  ZINC001053433946   -0.1700
      8 H8         -1.3311   -0.6865   46.7396 H       1  ZINC001053433946    0.1400
      9 C9         -2.1386    1.3681   46.6932 C.2     1  ZINC001053433946    0.5400
     10 O10        -2.9623    1.8872   45.9699 O.2     1  ZINC001053433946   -0.5200
     11 N11        -1.9902    1.7973   47.9622 N.am    1  ZINC001053433946   -0.6100
     12 C12        -0.9985    1.1845   48.8596 C.3     1  ZINC001053433946    0.0700
     13 C13        -1.6987    0.7730   50.1589 C.3     1  ZINC001053433946    0.0500
     14 O14        -2.3822    1.9042   50.7078 O.3     1  ZINC001053433946   -0.3400
     15 C15        -3.3761    2.4538   49.8472 C.3     1  ZINC001053433946    0.0800
     16 C16        -4.6410    1.5923   49.7341 C.3     1  ZINC001053433946   -0.0100
     17 N17        -5.1617    2.3903   50.8672 N.3     1  ZINC001053433946   -0.4700
     18 C18        -6.5675    2.7576   50.6505 C.3     1  ZINC001053433946    0.0200
     19 C19        -7.4557    1.9644   51.6112 C.3     1  ZINC001053433946   -0.1200
     20 H20        -8.4999    2.0793   51.3206 H       1  ZINC001053433946    0.0800
     21 C21        -7.0702    0.4828   51.5596 C.3     1  ZINC001053433946   -0.1200
     22 C22        -7.9120   -0.2883   52.5809 C.3     1  ZINC001053433946   -0.1600
     23 C23        -7.6983    0.3195   53.9696 C.3     1  ZINC001053433946    0.0600
     24 O24        -8.0462    1.7053   53.9402 O.3     1  ZINC001053433946   -0.3800
     25 C25        -7.2609    2.4863   53.0371 C.3     1  ZINC001053433946    0.0700
     26 C26        -4.2605    3.5123   50.5194 C.3     1  ZINC001053433946    0.0200
     27 C27        -2.8119    2.8993   48.4928 C.3     1  ZINC001053433946    0.1000
     28 H28        -0.1908    3.8997   44.8878 H       1  ZINC001053433946    0.4000
     29 H29        -1.2711    2.6555   44.5595 H       1  ZINC001053433946    0.4000
     30 H30        -1.5945    0.8829   44.0363 H       1  ZINC001053433946    0.1100
     31 H31        -1.0246   -0.8608   44.2271 H       1  ZINC001053433946    0.1200
     32 H32        -0.5678    0.3044   48.3820 H       1  ZINC001053433946    0.1000
     33 H33        -0.2112    1.9051   49.0809 H       1  ZINC001053433946    0.0800
     34 H34        -2.4170   -0.0196   49.9497 H       1  ZINC001053433946    0.0600
     35 H35        -0.9579    0.4139   50.8733 H       1  ZINC001053433946    0.1100
     36 H36        -5.1908    1.7385   48.8043 H       1  ZINC001053433946    0.0800
     37 H37        -4.4799    0.5413   49.9740 H       1  ZINC001053433946    0.0900
     38 H38        -6.6966    3.8244   50.8333 H       1  ZINC001053433946    0.0500
     39 H39        -6.8485    2.5284   49.6227 H       1  ZINC001053433946    0.0800
     40 H40        -7.2604    0.0911   50.5603 H       1  ZINC001053433946    0.0700
     41 H41        -6.0130    0.3725   51.8008 H       1  ZINC001053433946    0.0700
     42 H42        -8.9658   -0.2190   52.3111 H       1  ZINC001053433946    0.0700
     43 H43        -7.6054   -1.3343   52.5901 H       1  ZINC001053433946    0.0700
     44 H44        -8.3276   -0.1980   54.6936 H       1  ZINC001053433946    0.0900
     45 H45        -6.6519    0.2135   54.2559 H       1  ZINC001053433946    0.0500
     46 H46        -6.2085    2.4092   53.3103 H       1  ZINC001053433946    0.0500
     47 H47        -7.5750    3.5287   53.0903 H       1  ZINC001053433946    0.1000
     48 H48        -3.7970    3.9879   51.3836 H       1  ZINC001053433946    0.1000
     49 H49        -4.6975    4.2271   49.8221 H       1  ZINC001053433946    0.0900
     50 H50        -2.2008    3.7923   48.6241 H       1  ZINC001053433946    0.0800
     51 H51        -3.6302    3.1103   47.8043 H       1  ZINC001053433946    0.1000
@<TRIPOS>BOND
     1     1     2   am
     2     1    28    1
     3     1    29    1
     4     2     3    2
     5     2     4    1
     6     4     5    1
     7     4     7    1
     8     4     6    1
     9     6     7    1
    10     6    30    1
    11     6    31    1
    12     7     8    1
    13     7     9    1
    14     9    10    2
    15     9    11   am
    16    11    27    1
    17    11    12    1
    18    12    13    1
    19    12    32    1
    20    12    33    1
    21    13    14    1
    22    13    34    1
    23    13    35    1
    24    14    15    1
    25    15    26    1
    26    15    16    1
    27    15    27    1
    28    16    17    1
    29    16    36    1
    30    16    37    1
    31    17    18    1
    32    17    26    1
    33    18    19    1
    34    18    38    1
    35    18    39    1
    36    19    20    1
    37    19    25    1
    38    19    21    1
    39    21    22    1
    40    21    40    1
    41    21    41    1
    42    22    23    1
    43    22    42    1
    44    22    43    1
    45    23    24    1
    46    23    44    1
    47    23    45    1
    48    24    25    1
    49    25    46    1
    50    25    47    1
    51    26    48    1
    52    26    49    1
    53    27    50    1
    54    27    51    1
@<TRIPOS>SUBSTRUCTURE
     1 ZINC001053433946        1 TEMP              0 ****  ****    0 ROOT


##########                                Name:    ZINC000002634904
##########                DOCK_Rotatable_Bonds:                   7
##########                         Heavy_Atoms:                  31
##########                    Molecular_Weight:             423.498
##########                DOCK_Rotatable_Bonds:                   7
##########                       Formal_Charge:        -7.45058e-08
##########                     HBond_Acceptors:                   7
##########                        HBond_Donors:                   1
##########                         Heavy_Atoms:                  31
##########                          Grid_Score:          -34.290798
##########                     Grid_vdw_energy:          -33.027622
##########                      Grid_es_energy:           -1.263175
##########           Internal_energy_repulsive:            9.439675

@<TRIPOS>MOLECULE
ZINC000002634904
 48 51 1 0 0
SMALL
USER_CHARGES


@<TRIPOS>ATOM
      1 N1        -12.0237   -1.7253   57.4495 N.1     1  ZINC000002634904   -0.4100
      2 C2        -11.3015   -1.3557   56.6544 C.1     1  ZINC000002634904    0.2500
      3 C3        -10.3910   -0.8898   55.6520 C.ar    1  ZINC000002634904   -0.0400
      4 C4         -9.1642   -0.3330   56.0243 C.ar    1  ZINC000002634904   -0.0500
      5 C5         -8.2913    0.1140   55.0578 C.ar    1  ZINC000002634904   -0.1400
      6 C6         -8.6292    0.0120   53.7122 C.ar    1  ZINC000002634904    0.1700
      7 N7         -7.7420    0.4661   52.7355 N.am    1  ZINC000002634904   -0.6700
      8 C8         -7.3351   -0.3653   51.7559 C.2     1  ZINC000002634904    0.5400
      9 O9         -7.7398   -1.5081   51.7233 O.2     1  ZINC000002634904   -0.5000
     10 C10        -6.3769    0.1250   50.7011 C.3     1  ZINC000002634904   -0.1700
     11 S11        -6.2827    1.9315   50.7644 S.3     1  ZINC000002634904    0.1300
     12 C12        -4.7116    2.1827   50.0074 C.ar    1  ZINC000002634904    0.2100
     13 N13        -4.6486    2.4722   48.7126 N.ar    1  ZINC000002634904   -0.2900
     14 N14        -3.5236    2.6638   48.1178 N.ar    1  ZINC000002634904   -0.1600
     15 C15        -2.3819    2.5758   48.7920 C.ar    1  ZINC000002634904    0.0600
     16 C16        -1.0857    2.7964   48.1090 C.ar    1  ZINC000002634904   -0.0500
     17 C17        -0.1718    3.7163   48.6221 C.ar    1  ZINC000002634904   -0.0800
     18 C18         1.0338    3.9175   47.9816 C.ar    1  ZINC000002634904   -0.1200
     19 C19         1.3363    3.2091   46.8325 C.ar    1  ZINC000002634904   -0.1000
     20 C20         0.4337    2.2953   46.3187 C.ar    1  ZINC000002634904   -0.1200
     21 C21        -0.7725    2.0809   46.9539 C.ar    1  ZINC000002634904   -0.0800
     22 C22        -2.4236    2.2696   50.1671 C.ar    1  ZINC000002634904    0.2300
     23 C23        -1.1749    2.1616   50.9572 C.ar    1  ZINC000002634904   -0.0700
     24 C24        -0.3828    1.0179   50.8619 C.ar    1  ZINC000002634904   -0.0700
     25 C25         0.7793    0.9233   51.5999 C.ar    1  ZINC000002634904   -0.1200
     26 C26         1.1591    1.9602   52.4331 C.ar    1  ZINC000002634904   -0.0900
     27 C27         0.3773    3.0972   52.5323 C.ar    1  ZINC000002634904   -0.1200
     28 C28        -0.7840    3.2058   51.7948 C.ar    1  ZINC000002634904   -0.0700
     29 N29        -3.6101    2.0849   50.7411 N.ar    1  ZINC000002634904   -0.4400
     30 C30        -9.8491   -0.5419   53.3380 C.ar    1  ZINC000002634904   -0.1200
     31 C31       -10.7247   -0.9959   54.2988 C.ar    1  ZINC000002634904   -0.0500
     32 H32        -8.9015   -0.2532   57.0688 H       1  ZINC000002634904    0.1400
     33 H33        -7.3433    0.5446   55.3446 H       1  ZINC000002634904    0.1400
     34 H34        -7.4183    1.3801   52.7615 H       1  ZINC000002634904    0.4200
     35 H35        -5.3886   -0.2969   50.8836 H       1  ZINC000002634904    0.1300
     36 H36        -6.7289   -0.1862   49.7176 H       1  ZINC000002634904    0.1300
     37 H37        -0.4073    4.2704   49.5187 H       1  ZINC000002634904    0.1300
     38 H38         1.7423    4.6296   48.3780 H       1  ZINC000002634904    0.1300
     39 H39         2.2808    3.3705   46.3342 H       1  ZINC000002634904    0.1300
     40 H40         0.6754    1.7452   45.4213 H       1  ZINC000002634904    0.1300
     41 H41        -1.4762    1.3669   46.5521 H       1  ZINC000002634904    0.1200
     42 H42        -0.6786    0.2075   50.2119 H       1  ZINC000002634904    0.1300
     43 H43         1.3933    0.0378   51.5271 H       1  ZINC000002634904    0.1300
     44 H44         2.0695    1.8816   53.0087 H       1  ZINC000002634904    0.1300
     45 H45         0.6788    3.9033   53.1847 H       1  ZINC000002634904    0.1300
     46 H46        -1.3935    4.0939   51.8731 H       1  ZINC000002634904    0.1300
     47 H47       -10.1078   -0.6198   52.2923 H       1  ZINC000002634904    0.1500
     48 H48       -11.6714   -1.4262   54.0075 H       1  ZINC000002634904    0.1400
@<TRIPOS>BOND
     1     1     2    3
     2     2     3    1
     3     3    31   ar
     4     3     4   ar
     5     4     5   ar
     6     4    32    1
     7     5     6   ar
     8     5    33    1
     9     6     7    1
    10     6    30   ar
    11     7     8   am
    12     7    34    1
    13     8     9    2
    14     8    10    1
    15    10    11    1
    16    10    35    1
    17    10    36    1
    18    11    12    1
    19    12    29   ar
    20    12    13   ar
    21    13    14   ar
    22    14    15   ar
    23    15    16    1
    24    15    22   ar
    25    16    21   ar
    26    16    17   ar
    27    17    18   ar
    28    17    37    1
    29    18    19   ar
    30    18    38    1
    31    19    20   ar
    32    19    39    1
    33    20    21   ar
    34    20    40    1
    35    21    41    1
    36    22    23    1
    37    22    29   ar
    38    23    28   ar
    39    23    24   ar
    40    24    25   ar
    41    24    42    1
    42    25    26   ar
    43    25    43    1
    44    26    27   ar
    45    26    44    1
    46    27    28   ar
    47    27    45    1
    48    28    46    1
    49    30    31   ar
    50    30    47    1
    51    31    48    1
@<TRIPOS>SUBSTRUCTURE
     1 ZINC000002634904        1 TEMP              0 ****  ****    0 ROOT


##########                                Name:    ZINC000494558165
##########                DOCK_Rotatable_Bonds:                  11
##########                         Heavy_Atoms:                  28
##########                    Molecular_Weight:             409.506
##########                DOCK_Rotatable_Bonds:                  11
##########                       Formal_Charge:        -6.55651e-07
##########                     HBond_Acceptors:                   9
##########                        HBond_Donors:                   3
##########                         Heavy_Atoms:                  28
##########                          Grid_Score:          -34.232143
##########                     Grid_vdw_energy:          -34.432808
##########                      Grid_es_energy:            0.200666
##########           Internal_energy_repulsive:           31.631903

@<TRIPOS>MOLECULE
ZINC000494558165
 55 57 1 0 0
SMALL
USER_CHARGES


@<TRIPOS>ATOM
      1 O1        -11.8886    0.7487   56.3134 O.2     1  ZINC000494558165   -0.4400
      2 C2        -11.2811   -0.2669   56.5765 C.2     1  ZINC000494558165    0.5100
      3 C3        -11.8309   -1.2313   57.5957 C.3     1  ZINC000494558165    0.0300
      4 N4        -10.7425   -1.6988   58.4645 N.3     1  ZINC000494558165   -0.5000
      5 C5        -10.3514   -0.6582   59.4247 C.3     1  ZINC000494558165    0.0500
      6 C6         -8.8267   -0.5317   59.4466 C.3     1  ZINC000494558165   -0.1100
      7 C7         -8.2636   -1.3530   60.6081 C.3     1  ZINC000494558165    0.0800
      8 O8         -8.3867   -0.6086   61.8217 O.3     1  ZINC000494558165   -0.5700
      9 C9        -11.1172   -2.9395   59.1562 C.3     1  ZINC000494558165    0.1200
     10 H10       -10.6584   -2.9742   60.1443 H       1  ZINC000494558165    0.1000
     11 C11       -10.6895   -4.1669   58.3238 C.3     1  ZINC000494558165   -0.1200
     12 C12       -11.9556   -4.4600   57.4910 C.3     1  ZINC000494558165   -0.0900
     13 C13       -13.1048   -3.9171   58.3129 C.ar    1  ZINC000494558165   -0.0900
     14 C14       -14.4640   -4.1672   58.2301 C.ar    1  ZINC000494558165   -0.1100
     15 C15       -15.3394   -3.5466   59.1002 C.ar    1  ZINC000494558165   -0.1100
     16 C16       -14.8578   -2.6732   60.0569 C.ar    1  ZINC000494558165   -0.1200
     17 C17       -13.5019   -2.4223   60.1411 C.ar    1  ZINC000494558165   -0.1000
     18 C18       -12.6229   -3.0420   59.2723 C.ar    1  ZINC000494558165   -0.1300
     19 N19       -10.1168   -0.5363   55.9534 N.am    1  ZINC000494558165   -0.6900
     20 C20        -9.6250    0.3263   55.0419 C.2     1  ZINC000494558165    0.7000
     21 O21       -10.2308    1.3475   54.7828 O.2     1  ZINC000494558165   -0.5200
     22 N22        -8.4615    0.0561   54.4175 N.am    1  ZINC000494558165   -0.7300
     23 C23        -7.9261    0.9944   53.4280 C.3     1  ZINC000494558165    0.1700
     24 H24        -8.3048    1.9962   53.6307 H       1  ZINC000494558165    0.1200
     25 C25        -6.3889    0.9985   53.4976 C.3     1  ZINC000494558165   -0.1400
     26 C26        -5.8894    1.7382   52.2298 C.3     1  ZINC000494558165   -0.5800
     27 S27        -6.9805    1.0655   50.9198 S.o2    1  ZINC000494558165    2.4000
     28 O28        -7.4150    2.1253   50.0787 O.2     1  ZINC000494558165   -0.9300
     29 O29        -6.3769   -0.0879   50.3504 O.2     1  ZINC000494558165   -0.9300
     30 C30        -8.3530    0.5552   52.0133 C.3     1  ZINC000494558165   -0.6200
     31 H31       -12.5876   -0.7299   58.1992 H       1  ZINC000494558165    0.0700
     32 H32       -12.2795   -2.0832   57.0848 H       1  ZINC000494558165    0.1200
     33 H33       -10.7907    0.2940   59.1276 H       1  ZINC000494558165    0.0900
     34 H34       -10.7078   -0.9285   60.4187 H       1  ZINC000494558165    0.0400
     35 H35        -8.4177   -0.9032   58.5070 H       1  ZINC000494558165    0.0700
     36 H36        -8.5509    0.5150   59.5744 H       1  ZINC000494558165    0.0800
     37 H37        -8.8197   -2.2864   60.6964 H       1  ZINC000494558165    0.0500
     38 H38        -7.2123   -1.5726   60.4217 H       1  ZINC000494558165    0.0400
     39 H39        -8.1859   -1.1188   62.6182 H       1  ZINC000494558165    0.3800
     40 H40        -9.8480   -3.9215   57.6759 H       1  ZINC000494558165    0.0900
     41 H41       -10.4483   -5.0095   58.9717 H       1  ZINC000494558165    0.0800
     42 H42       -11.9030   -3.9484   56.5300 H       1  ZINC000494558165    0.0800
     43 H43       -12.0706   -5.5337   57.3429 H       1  ZINC000494558165    0.0800
     44 H44       -14.8412   -4.8494   57.4826 H       1  ZINC000494558165    0.1200
     45 H45       -16.3991   -3.7442   59.0331 H       1  ZINC000494558165    0.1300
     46 H46       -15.5408   -2.1869   60.7376 H       1  ZINC000494558165    0.1200
     47 H47       -13.1263   -1.7393   60.8887 H       1  ZINC000494558165    0.1200
     48 H48        -9.6326   -1.3507   56.1610 H       1  ZINC000494558165    0.4100
     49 H49        -7.9787   -0.7596   54.6234 H       1  ZINC000494558165    0.4000
     50 H50        -6.0572    1.5254   54.3924 H       1  ZINC000494558165    0.1100
     51 H51        -6.0129   -0.0246   53.5055 H       1  ZINC000494558165    0.0900
     52 H52        -6.0253    2.8149   52.3315 H       1  ZINC000494558165    0.1400
     53 H53        -4.8463    1.4962   52.0266 H       1  ZINC000494558165    0.1400
     54 H54        -8.4855   -0.5259   51.9748 H       1  ZINC000494558165    0.1500
     55 H55        -9.2745    1.0609   51.7251 H       1  ZINC000494558165    0.1500
@<TRIPOS>BOND
     1     1     2    2
     2     2     3    1
     3     2    19   am
     4     3     4    1
     5     3    31    1
     6     3    32    1
     7     4     5    1
     8     4     9    1
     9     5     6    1
    10     5    33    1
    11     5    34    1
    12     6     7    1
    13     6    35    1
    14     6    36    1
    15     7     8    1
    16     7    37    1
    17     7    38    1
    18     8    39    1
    19     9    10    1
    20     9    18    1
    21     9    11    1
    22    11    12    1
    23    11    40    1
    24    11    41    1
    25    12    13    1
    26    12    42    1
    27    12    43    1
    28    13    18   ar
    29    13    14   ar
    30    14    15   ar
    31    14    44    1
    32    15    16   ar
    33    15    45    1
    34    16    17   ar
    35    16    46    1
    36    17    18   ar
    37    17    47    1
    38    19    20   am
    39    19    48    1
    40    20    21    2
    41    20    22   am
    42    22    23    1
    43    22    49    1
    44    23    24    1
    45    23    30    1
    46    23    25    1
    47    25    26    1
    48    25    50    1
    49    25    51    1
    50    26    27    1
    51    26    52    1
    52    26    53    1
    53    27    28    2
    54    27    29    2
    55    27    30    1
    56    30    54    1
    57    30    55    1
@<TRIPOS>SUBSTRUCTURE
     1 ZINC000494558165        1 TEMP              0 ****  ****    0 ROOT


##########                                Name:    ZINC000457806032
##########                DOCK_Rotatable_Bonds:                   8
##########                         Heavy_Atoms:                  24
##########                    Molecular_Weight:             387.911
##########                DOCK_Rotatable_Bonds:                   8
##########                       Formal_Charge:        -1.49012e-07
##########                     HBond_Acceptors:                   9
##########                        HBond_Donors:                   2
##########                         Heavy_Atoms:                  24
##########                          Grid_Score:          -34.177959
##########                     Grid_vdw_energy:          -33.034901
##########                      Grid_es_energy:           -1.143059
##########           Internal_energy_repulsive:           12.204606

@<TRIPOS>MOLECULE
ZINC000457806032
 42 43 1 0 0
SMALL
USER_CHARGES


@<TRIPOS>ATOM
      1 C1         -1.0157   -0.5893   46.6670 C.3     1  ZINC000457806032    0.0800
      2 N2         -0.2614    0.5524   46.1437 N.am    1  ZINC000457806032   -1.0100
      3 C3          1.1753    0.4256   45.8873 C.3     1  ZINC000457806032    0.0900
      4 S4         -1.0329    1.9863   45.8419 S.o2    1  ZINC000457806032    2.7900
      5 O5         -0.0206    2.9216   45.4958 O.2     1  ZINC000457806032   -0.9700
      6 O6         -2.1312    1.6803   44.9936 O.2     1  ZINC000457806032   -0.9700
      7 N7         -1.6797    2.5061   47.2751 N.am    1  ZINC000457806032   -1.1300
      8 C8         -2.6609    1.6769   47.9794 C.3     1  ZINC000457806032    0.1100
      9 C9         -3.4371    2.5406   48.9755 C.3     1  ZINC000457806032    0.1100
     10 N10        -4.4498    1.7217   49.6464 N.am    1  ZINC000457806032   -0.7300
     11 C11        -4.6300    1.8295   50.9777 C.2     1  ZINC000457806032    0.5800
     12 O12        -3.9528    2.6078   51.6220 O.2     1  ZINC000457806032   -0.5300
     13 C13        -5.6467    1.0052   51.6521 C.2     1  ZINC000457806032   -0.1500
     14 C14        -6.2584   -0.0550   51.0541 C.2     1  ZINC000457806032   -0.2200
     15 S15        -7.3766   -0.7797   52.1193 S.3     1  ZINC000457806032    0.2400
     16 C16        -7.0034    0.3757   53.3890 C.2     1  ZINC000457806032   -0.1700
     17 C17        -7.6258    0.3932   54.7304 C.ar    1  ZINC000457806032   -0.0100
     18 C18        -8.6310   -0.5210   55.0481 C.ar    1  ZINC000457806032   -0.0900
     19 C19        -9.2080   -0.4999   56.3010 C.ar    1  ZINC000457806032   -0.1000
     20 C20        -8.7917    0.4263   57.2423 C.ar    1  ZINC000457806032   -0.0300
     21 Cl21       -9.5228    0.4472   58.8167 Cl      1  ZINC000457806032   -0.0600
     22 C22        -7.7944    1.3356   56.9329 C.ar    1  ZINC000457806032   -0.1000
     23 C23        -7.2061    1.3203   55.6852 C.ar    1  ZINC000457806032   -0.1000
     24 C24        -6.0654    1.2368   52.9634 C.2     1  ZINC000457806032   -0.0700
     25 H25        -1.0043   -0.5636   47.7567 H       1  ZINC000457806032    0.0600
     26 H26        -2.0454   -0.5375   46.3132 H       1  ZINC000457806032    0.0800
     27 H27        -0.5587   -1.5163   46.3206 H       1  ZINC000457806032    0.0800
     28 H28         1.3332    0.0853   44.8640 H       1  ZINC000457806032    0.0600
     29 H29         1.6561    1.3939   46.0265 H       1  ZINC000457806032    0.0700
     30 H30         1.6058   -0.2968   46.5808 H       1  ZINC000457806032    0.0700
     31 H31        -1.4087    3.3594   47.6483 H       1  ZINC000457806032    0.4200
     32 H32        -3.3534    1.2422   47.2586 H       1  ZINC000457806032    0.0700
     33 H33        -2.1453    0.8793   48.5145 H       1  ZINC000457806032    0.0900
     34 H34        -2.7493    2.9473   49.7169 H       1  ZINC000457806032    0.0800
     35 H35        -3.9243    3.3585   48.4448 H       1  ZINC000457806032    0.0800
     36 H36        -4.9908    1.1019   49.1324 H       1  ZINC000457806032    0.4000
     37 H37        -6.0627   -0.3900   50.0462 H       1  ZINC000457806032    0.1700
     38 H38        -8.9569   -1.2435   54.3144 H       1  ZINC000457806032    0.1400
     39 H39        -9.9860   -1.2070   56.5480 H       1  ZINC000457806032    0.1400
     40 H40        -7.4739    2.0558   57.6711 H       1  ZINC000457806032    0.1400
     41 H41        -6.4281    2.0298   55.4451 H       1  ZINC000457806032    0.1300
     42 H42        -5.6775    2.0379   53.5750 H       1  ZINC000457806032    0.1600
@<TRIPOS>BOND
     1     1     2    1
     2     1    25    1
     3     1    26    1
     4     1    27    1
     5     2     3    1
     6     2     4   am
     7     3    28    1
     8     3    29    1
     9     3    30    1
    10     4     5    2
    11     4     6    2
    12     4     7   am
    13     7     8    1
    14     7    31    1
    15     8     9    1
    16     8    32    1
    17     8    33    1
    18     9    10    1
    19     9    34    1
    20     9    35    1
    21    10    11   am
    22    10    36    1
    23    11    12    2
    24    11    13    1
    25    13    24    1
    26    13    14    2
    27    14    15    1
    28    14    37    1
    29    15    16    1
    30    16    17    1
    31    16    24    2
    32    17    23   ar
    33    17    18   ar
    34    18    19   ar
    35    18    38    1
    36    19    20   ar
    37    19    39    1
    38    20    21    1
    39    20    22   ar
    40    22    23   ar
    41    22    40    1
    42    23    41    1
    43    24    42    1
@<TRIPOS>SUBSTRUCTURE
     1 ZINC000457806032        1 TEMP              0 ****  ****    0 ROOT


##########                                Name:    ZINC000509132103
##########                DOCK_Rotatable_Bonds:                   7
##########                         Heavy_Atoms:                  29
##########                    Molecular_Weight:              405.52
##########                DOCK_Rotatable_Bonds:                   7
##########                       Formal_Charge:          -0.0499998
##########                     HBond_Acceptors:                   6
##########                        HBond_Donors:                   0
##########                         Heavy_Atoms:                  29
##########                          Grid_Score:          -34.164764
##########                     Grid_vdw_energy:          -34.822117
##########                      Grid_es_energy:            0.657352
##########           Internal_energy_repulsive:           16.591183

@<TRIPOS>MOLECULE
ZINC000509132103
 52 55 1 0 0
SMALL
USER_CHARGES


@<TRIPOS>ATOM
      1 C1         -2.1375    2.1769   48.1627 C.3     1  ZINC000509132103    0.0300
      2 O2         -3.4581    2.6811   47.9531 O.3     1  ZINC000509132103   -0.3000
      3 C3         -4.3988    2.3449   48.8714 C.ar    1  ZINC000509132103    0.2700
      4 C4         -4.0426    1.6137   50.0014 C.ar    1  ZINC000509132103   -0.1300
      5 C5         -5.0407    1.2952   50.9100 C.ar    1  ZINC000509132103   -0.0700
      6 C6         -6.3314    1.7241   50.6374 C.ar    1  ZINC000509132103    0.0500
      7 C7         -7.4503    1.4034   51.5945 C.3     1  ZINC000509132103   -0.0500
      8 S8         -7.2767   -0.3058   52.1768 S.3     1  ZINC000509132103   -0.1500
      9 C9         -8.5653   -0.4372   53.4467 C.3     1  ZINC000509132103   -0.1300
     10 C10        -8.0731    0.1846   54.7281 C.2     1  ZINC000509132103    0.5400
     11 O11        -6.9730    0.6934   54.7718 O.2     1  ZINC000509132103   -0.5100
     12 N12        -8.8553    0.1754   55.8256 N.am    1  ZINC000509132103   -0.6100
     13 C13        -8.4056    0.7722   57.0879 C.3     1  ZINC000509132103    0.1500
     14 C14        -8.7366   -0.1519   58.2328 C.ar    1  ZINC000509132103   -0.1000
     15 C15        -8.1758    0.1253   59.4716 C.ar    1  ZINC000509132103   -0.1100
     16 C16        -8.4494   -0.6779   60.5600 C.ar    1  ZINC000509132103   -0.1200
     17 C17        -9.2896   -1.7658   60.4148 C.ar    1  ZINC000509132103   -0.1200
     18 C18        -9.8445   -2.0447   59.1830 C.ar    1  ZINC000509132103   -0.1100
     19 C19        -9.5660   -1.2413   58.0842 C.ar    1  ZINC000509132103   -0.0600
     20 C20       -10.1858   -1.6224   56.7655 C.3     1  ZINC000509132103   -0.0200
     21 H21        -9.6129   -2.4368   56.3223 H       1  ZINC000509132103    0.1000
     22 C22       -11.6021   -2.0821   56.9980 C.ar    1  ZINC000509132103   -0.0800
     23 C23       -11.9797   -3.3636   56.6435 C.ar    1  ZINC000509132103   -0.1100
     24 C24       -13.2788   -3.7853   56.8568 C.ar    1  ZINC000509132103   -0.1200
     25 C25       -14.2002   -2.9254   57.4249 C.ar    1  ZINC000509132103   -0.1200
     26 C26       -13.8221   -1.6441   57.7801 C.ar    1  ZINC000509132103   -0.1200
     27 C27       -12.5220   -1.2239   57.5709 C.ar    1  ZINC000509132103   -0.1100
     28 C28       -10.1979   -0.4285   55.8038 C.3     1  ZINC000509132103    0.1200
     29 N29        -6.5787    2.4130   49.5408 N.ar    1  ZINC000509132103   -0.1900
     30 N30        -5.6578    2.7153   48.6994 N.ar    1  ZINC000509132103   -0.3000
     31 H31        -2.1618    1.0872   48.1716 H       1  ZINC000509132103    0.0600
     32 H32        -1.4859    2.5192   47.3587 H       1  ZINC000509132103    0.1000
     33 H33        -1.7574    2.5396   49.1177 H       1  ZINC000509132103    0.0600
     34 H34        -3.0210    1.3040   50.1652 H       1  ZINC000509132103    0.1600
     35 H35        -4.8197    0.7296   51.8032 H       1  ZINC000509132103    0.1600
     36 H36        -7.4069    2.0832   52.4453 H       1  ZINC000509132103    0.1100
     37 H37        -8.4076    1.5184   51.0860 H       1  ZINC000509132103    0.1000
     38 H38        -9.4613    0.0844   53.1104 H       1  ZINC000509132103    0.1100
     39 H39        -8.7997   -1.4877   53.6192 H       1  ZINC000509132103    0.1100
     40 H40        -7.3279    0.9312   57.0501 H       1  ZINC000509132103    0.1000
     41 H41        -8.9077    1.7281   57.2364 H       1  ZINC000509132103    0.0900
     42 H42        -7.5200    0.9759   59.5847 H       1  ZINC000509132103    0.1200
     43 H43        -8.0092   -0.4572   61.5211 H       1  ZINC000509132103    0.1300
     44 H44        -9.5108   -2.3961   61.2634 H       1  ZINC000509132103    0.1200
     45 H45       -10.5008   -2.8950   59.0716 H       1  ZINC000509132103    0.1200
     46 H46       -11.2599   -4.0355   56.1996 H       1  ZINC000509132103    0.1200
     47 H47       -13.5741   -4.7864   56.5792 H       1  ZINC000509132103    0.1200
     48 H48       -15.2153   -3.2545   57.5908 H       1  ZINC000509132103    0.1200
     49 H49       -14.5421   -0.9721   58.2237 H       1  ZINC000509132103    0.1200
     50 H50       -12.2267   -0.2228   57.8484 H       1  ZINC000509132103    0.1200
     51 H51       -10.9408    0.2997   56.1292 H       1  ZINC000509132103    0.0800
     52 H52       -10.4321   -0.7697   54.7953 H       1  ZINC000509132103    0.1000
@<TRIPOS>BOND
     1     1     2    1
     2     1    31    1
     3     1    32    1
     4     1    33    1
     5     2     3    1
     6     3    30   ar
     7     3     4   ar
     8     4     5   ar
     9     4    34    1
    10     5     6   ar
    11     5    35    1
    12     6     7    1
    13     6    29   ar
    14     7     8    1
    15     7    36    1
    16     7    37    1
    17     8     9    1
    18     9    10    1
    19     9    38    1
    20     9    39    1
    21    10    11    2
    22    10    12   am
    23    12    28    1
    24    12    13    1
    25    13    14    1
    26    13    40    1
    27    13    41    1
    28    14    19   ar
    29    14    15   ar
    30    15    16   ar
    31    15    42    1
    32    16    17   ar
    33    16    43    1
    34    17    18   ar
    35    17    44    1
    36    18    19   ar
    37    18    45    1
    38    19    20    1
    39    20    21    1
    40    20    22    1
    41    20    28    1
    42    22    27   ar
    43    22    23   ar
    44    23    24   ar
    45    23    46    1
    46    24    25   ar
    47    24    47    1
    48    25    26   ar
    49    25    48    1
    50    26    27   ar
    51    26    49    1
    52    27    50    1
    53    28    51    1
    54    28    52    1
    55    29    30   ar
@<TRIPOS>SUBSTRUCTURE
     1 ZINC000509132103        1 TEMP              0 ****  ****    0 ROOT


##########                                Name:    ZINC000417533280
##########                DOCK_Rotatable_Bonds:                   9
##########                         Heavy_Atoms:                  26
##########                    Molecular_Weight:             367.439
##########                DOCK_Rotatable_Bonds:                   9
##########                       Formal_Charge:         -0.00999999
##########                     HBond_Acceptors:                   7
##########                        HBond_Donors:                   2
##########                         Heavy_Atoms:                  26
##########                          Grid_Score:          -34.049728
##########                     Grid_vdw_energy:          -33.359337
##########                      Grid_es_energy:           -0.690391
##########           Internal_energy_repulsive:           15.278961

@<TRIPOS>MOLECULE
ZINC000417533280
 53 54 1 0 0
SMALL
USER_CHARGES


@<TRIPOS>ATOM
      1 C1         -0.1591    0.3418   44.2062 C.3     1  ZINC000417533280   -0.1600
      2 C2         -1.6755    0.4045   44.3994 C.3     1  ZINC000417533280   -0.1200
      3 C3         -2.0227    1.5617   45.3381 C.3     1  ZINC000417533280   -0.1200
      4 C4         -1.3647    1.3289   46.6997 C.3     1  ZINC000417533280   -0.1300
      5 C5         -1.9133    2.3381   47.7104 C.3     1  ZINC000417533280    0.1200
      6 N6         -3.1941    1.8573   48.2344 N.am    1  ZINC000417533280   -0.7300
      7 C7         -3.9045    2.6238   49.0853 C.2     1  ZINC000417533280    0.5200
      8 O8         -3.4842    3.7124   49.4160 O.2     1  ZINC000417533280   -0.5400
      9 C9         -5.2212    2.1284   49.6257 C.3     1  ZINC000417533280   -0.1100
     10 C10        -4.9680    1.0100   50.6392 C.3     1  ZINC000417533280   -0.1300
     11 C11        -6.3095    0.4854   51.1605 C.3     1  ZINC000417533280    0.1300
     12 N12        -7.0855    1.6151   51.6900 N.am    1  ZINC000417533280   -0.6200
     13 C13        -7.5810    1.5806   52.9429 C.2     1  ZINC000417533280    0.7100
     14 O14        -8.2216    2.5219   53.3694 O.2     1  ZINC000417533280   -0.5600
     15 N15        -7.3664    0.5027   53.7230 N.am    1  ZINC000417533280   -0.6800
     16 C16        -7.8813    0.4668   55.0250 C.ar    1  ZINC000417533280    0.1900
     17 C17        -7.2369    1.1517   56.0461 C.ar    1  ZINC000417533280   -0.1100
     18 C18        -7.7458    1.1163   57.3303 C.ar    1  ZINC000417533280   -0.1100
     19 C19        -8.8976    0.3983   57.6000 C.ar    1  ZINC000417533280    0.0500
     20 F20        -9.3936    0.3654   58.8562 F       1  ZINC000417533280   -0.1300
     21 C21        -9.5439   -0.2870   56.5818 C.ar    1  ZINC000417533280    0.0900
     22 F22       -10.6684   -0.9873   56.8467 F       1  ZINC000417533280   -0.1200
     23 C23        -9.0401   -0.2490   55.2946 C.ar    1  ZINC000417533280   -0.1300
     24 C24        -9.7418   -0.9929   54.1876 C.3     1  ZINC000417533280   -0.1200
     25 C25        -7.3106    2.7833   50.8279 C.3     1  ZINC000417533280    0.1100
     26 C26        -5.9578    3.2821   50.3102 C.3     1  ZINC000417533280   -0.1200
     27 H27         0.1909    1.2788   43.7728 H       1  ZINC000417533280    0.0500
     28 H28         0.3240    0.1849   45.1706 H       1  ZINC000417533280    0.0500
     29 H29         0.0883   -0.4826   43.5375 H       1  ZINC000417533280    0.0500
     30 H30        -2.1586    0.5614   43.4350 H       1  ZINC000417533280    0.0600
     31 H31        -2.0255   -0.5325   44.8328 H       1  ZINC000417533280    0.0600
     32 H32        -1.6574    2.4964   44.9130 H       1  ZINC000417533280    0.0700
     33 H33        -3.1042    1.6170   45.4621 H       1  ZINC000417533280    0.0700
     34 H34        -1.5837    0.3172   47.0409 H       1  ZINC000417533280    0.0700
     35 H35        -0.2860    1.4561   46.6082 H       1  ZINC000417533280    0.0700
     36 H36        -1.2049    2.4523   48.5309 H       1  ZINC000417533280    0.0700
     37 H37        -2.0596    3.3005   47.2200 H       1  ZINC000417533280    0.0700
     38 H38        -3.5308    0.9872   47.9689 H       1  ZINC000417533280    0.4000
     39 H39        -5.8289    1.7449   48.8063 H       1  ZINC000417533280    0.1000
     40 H40        -4.4228    0.1987   50.1568 H       1  ZINC000417533280    0.0800
     41 H41        -4.3812    1.3990   51.4713 H       1  ZINC000417533280    0.0800
     42 H42        -6.8593    0.0144   50.3456 H       1  ZINC000417533280    0.0700
     43 H43        -6.1344   -0.2413   51.9538 H       1  ZINC000417533280    0.1000
     44 H44        -6.8555   -0.2483   53.3827 H       1  ZINC000417533280    0.4100
     45 H45        -6.3376    1.7119   55.8368 H       1  ZINC000417533280    0.1700
     46 H46        -7.2437    1.6489   58.1243 H       1  ZINC000417533280    0.1500
     47 H47       -10.4804   -0.3401   53.7225 H       1  ZINC000417533280    0.0800
     48 H48        -9.0121   -1.3062   53.4409 H       1  ZINC000417533280    0.0700
     49 H49       -10.2404   -1.8706   54.5990 H       1  ZINC000417533280    0.0800
     50 H50        -7.9421    2.4998   49.9859 H       1  ZINC000417533280    0.0800
     51 H51        -7.7960    3.5728   51.4017 H       1  ZINC000417533280    0.0800
     52 H52        -5.3618    3.6498   51.1455 H       1  ZINC000417533280    0.0800
     53 H53        -6.1172    4.0880   49.5938 H       1  ZINC000417533280    0.0900
@<TRIPOS>BOND
     1     1     2    1
     2     1    27    1
     3     1    28    1
     4     1    29    1
     5     2     3    1
     6     2    30    1
     7     2    31    1
     8     3     4    1
     9     3    32    1
    10     3    33    1
    11     4     5    1
    12     4    34    1
    13     4    35    1
    14     5     6    1
    15     5    36    1
    16     5    37    1
    17     6     7   am
    18     6    38    1
    19     7     8    2
    20     7     9    1
    21     9    26    1
    22     9    10    1
    23     9    39    1
    24    10    11    1
    25    10    40    1
    26    10    41    1
    27    11    12    1
    28    11    42    1
    29    11    43    1
    30    12    13   am
    31    12    25    1
    32    13    14    2
    33    13    15   am
    34    15    16    1
    35    15    44    1
    36    16    23   ar
    37    16    17   ar
    38    17    18   ar
    39    17    45    1
    40    18    19   ar
    41    18    46    1
    42    19    20    1
    43    19    21   ar
    44    21    22    1
    45    21    23   ar
    46    23    24    1
    47    24    47    1
    48    24    48    1
    49    24    49    1
    50    25    26    1
    51    25    50    1
    52    25    51    1
    53    26    52    1
    54    26    53    1
@<TRIPOS>SUBSTRUCTURE
     1 ZINC000417533280        1 TEMP              0 ****  ****    0 ROOT


##########                                Name:    ZINC000434204837
##########                DOCK_Rotatable_Bonds:                   7
##########                         Heavy_Atoms:                  29
##########                    Molecular_Weight:             406.511
##########                DOCK_Rotatable_Bonds:                   7
##########                       Formal_Charge:          -0.0200002
##########                     HBond_Acceptors:                   8
##########                        HBond_Donors:                   0
##########                         Heavy_Atoms:                  29
##########                          Grid_Score:          -34.047306
##########                     Grid_vdw_energy:          -33.630112
##########                      Grid_es_energy:           -0.417193
##########           Internal_energy_repulsive:           13.944489

@<TRIPOS>MOLECULE
ZINC000434204837
 51 54 1 0 0
SMALL
USER_CHARGES


@<TRIPOS>ATOM
      1 C1         -9.2057    1.9573   54.6663 C.3     1  ZINC000434204837   -0.1300
      2 C2         -8.2770    1.2838   53.6890 C.ar    1  ZINC000434204837   -0.0700
      3 C3         -6.9279    1.5836   53.6988 C.ar    1  ZINC000434204837   -0.1200
      4 C4         -6.0759    0.9657   52.8022 C.ar    1  ZINC000434204837   -0.1100
      5 C5         -6.5733    0.0480   51.8963 C.ar    1  ZINC000434204837   -0.1300
      6 C6         -7.9227   -0.2525   51.8870 C.ar    1  ZINC000434204837   -0.0900
      7 C7         -8.7738    0.3619   52.7863 C.ar    1  ZINC000434204837   -0.1000
      8 C8        -10.2447    0.0344   52.7761 C.3     1  ZINC000434204837    0.0100
      9 C9        -10.5851   -0.7860   53.9935 C.2     1  ZINC000434204837    0.2000
     10 N10       -11.7330   -0.8038   54.6273 N.2     1  ZINC000434204837   -0.4600
     11 C11       -11.5736   -1.6735   55.6407 C.2     1  ZINC000434204837    0.1700
     12 C12       -12.6123   -2.0481   56.6663 C.3     1  ZINC000434204837   -0.0300
     13 S13       -12.1533   -3.6165   57.4446 S.3     1  ZINC000434204837    0.0900
     14 C14       -13.3433   -3.6735   58.7429 C.2     1  ZINC000434204837    0.2100
     15 N15       -14.4719   -4.3497   58.7403 N.2     1  ZINC000434204837   -0.3300
     16 N16       -15.1050   -4.1728   59.8434 N.2     1  ZINC000434204837   -0.0200
     17 N17       -14.4431   -3.3855   60.6202 N.2     1  ZINC000434204837   -0.0700
     18 N18       -13.2663   -3.0330   59.9366 N.pl3   1  ZINC000434204837   -0.3100
     19 C19       -12.2379   -2.1936   60.3880 C.ar    1  ZINC000434204837    0.1100
     20 C20       -12.5192   -0.8847   60.7555 C.ar    1  ZINC000434204837   -0.1100
     21 C21       -11.5042   -0.0602   61.2002 C.ar    1  ZINC000434204837   -0.0900
     22 C22       -10.2087   -0.5373   61.2790 C.ar    1  ZINC000434204837   -0.0600
     23 C23        -9.1035    0.3649   61.7646 C.3     1  ZINC000434204837   -0.0600
     24 C24        -9.1259    1.6721   60.9700 C.3     1  ZINC000434204837   -0.1500
     25 C25        -9.3081    0.6677   63.2504 C.3     1  ZINC000434204837   -0.1500
     26 C26        -9.9253   -1.8405   60.9137 C.ar    1  ZINC000434204837   -0.1000
     27 C27       -10.9371   -2.6712   60.4736 C.ar    1  ZINC000434204837   -0.0900
     28 N28       -10.3595   -2.1317   55.5729 N.2     1  ZINC000434204837   -0.3600
     29 O29        -9.7767   -1.6387   54.6301 O.3     1  ZINC000434204837    0.0900
     30 H30        -9.2628    1.3657   55.5800 H       1  ZINC000434204837    0.0800
     31 H31        -8.8271    2.9522   54.9007 H       1  ZINC000434204837    0.0700
     32 H32       -10.1989    2.0410   54.2251 H       1  ZINC000434204837    0.0700
     33 H33        -6.5392    2.3007   54.4067 H       1  ZINC000434204837    0.1300
     34 H34        -5.0217    1.2005   52.8095 H       1  ZINC000434204837    0.1200
     35 H35        -5.9079   -0.4342   51.1954 H       1  ZINC000434204837    0.1300
     36 H36        -8.3115   -0.9694   51.1790 H       1  ZINC000434204837    0.1300
     37 H37       -10.8228    0.9584   52.7873 H       1  ZINC000434204837    0.1200
     38 H38       -10.4844   -0.5332   51.8769 H       1  ZINC000434204837    0.1200
     39 H39       -12.6704   -1.2688   57.4261 H       1  ZINC000434204837    0.1300
     40 H40       -13.5817   -2.1541   56.1795 H       1  ZINC000434204837    0.1400
     41 H41       -13.5308   -0.5114   60.6934 H       1  ZINC000434204837    0.1400
     42 H42       -11.7225    0.9580   61.4862 H       1  ZINC000434204837    0.1400
     43 H43        -8.1425   -0.1297   61.6236 H       1  ZINC000434204837    0.0800
     44 H44       -10.0870    2.1666   61.1110 H       1  ZINC000434204837    0.0600
     45 H45        -8.3265    2.3246   61.3212 H       1  ZINC000434204837    0.0600
     46 H46        -8.9801    1.4563   59.9114 H       1  ZINC000434204837    0.0600
     47 H47        -9.2921   -0.2636   63.8166 H       1  ZINC000434204837    0.0600
     48 H48        -8.5087    1.3202   63.6016 H       1  ZINC000434204837    0.0600
     49 H49       -10.2691    1.1622   63.3914 H       1  ZINC000434204837    0.0600
     50 H50        -8.9124   -2.2101   60.9760 H       1  ZINC000434204837    0.1400
     51 H51       -10.7153   -3.6890   60.1884 H       1  ZINC000434204837    0.1400
@<TRIPOS>BOND
     1     1     2    1
     2     1    30    1
     3     1    31    1
     4     1    32    1
     5     2     7   ar
     6     2     3   ar
     7     3     4   ar
     8     3    33    1
     9     4     5   ar
    10     4    34    1
    11     5     6   ar
    12     5    35    1
    13     6     7   ar
    14     6    36    1
    15     7     8    1
    16     8     9    1
    17     8    37    1
    18     8    38    1
    19     9    29    1
    20     9    10    2
    21    10    11    1
    22    11    12    1
    23    11    28    2
    24    12    13    1
    25    12    39    1
    26    12    40    1
    27    13    14    1
    28    14    18    1
    29    14    15    2
    30    15    16    1
    31    16    17    2
    32    17    18    1
    33    18    19    1
    34    19    27   ar
    35    19    20   ar
    36    20    21   ar
    37    20    41    1
    38    21    22   ar
    39    21    42    1
    40    22    23    1
    41    22    26   ar
    42    23    24    1
    43    23    25    1
    44    23    43    1
    45    24    44    1
    46    24    45    1
    47    24    46    1
    48    25    47    1
    49    25    48    1
    50    25    49    1
    51    26    27   ar
    52    26    50    1
    53    27    51    1
    54    28    29    1
@<TRIPOS>SUBSTRUCTURE
     1 ZINC000434204837        1 TEMP              0 ****  ****    0 ROOT


##########                                Name:    ZINC000471198073
##########                DOCK_Rotatable_Bonds:                  12
##########                         Heavy_Atoms:                  30
##########                    Molecular_Weight:             409.528
##########                DOCK_Rotatable_Bonds:                  12
##########                       Formal_Charge:          -0.0399998
##########                     HBond_Acceptors:                   6
##########                        HBond_Donors:                   3
##########                         Heavy_Atoms:                  30
##########                          Grid_Score:          -34.004936
##########                     Grid_vdw_energy:          -33.648350
##########                      Grid_es_energy:           -0.356586
##########           Internal_energy_repulsive:           24.206934

@<TRIPOS>MOLECULE
ZINC000471198073
 61 62 1 0 0
SMALL
USER_CHARGES


@<TRIPOS>ATOM
      1 C1         -8.3545   -0.5269   60.0105 C.3     1  ZINC000471198073   -0.1400
      2 C2         -9.3473   -1.5034   59.3767 C.3     1  ZINC000471198073   -0.1100
      3 C3        -10.5724   -1.6447   60.2824 C.3     1  ZINC000471198073   -0.1500
      4 C4         -9.7760   -0.9806   58.0299 C.2     1  ZINC000471198073    0.5200
      5 O5        -10.2554    0.1294   57.9348 O.2     1  ZINC000471198073   -0.5200
      6 N6         -9.6265   -1.7465   56.9310 N.am    1  ZINC000471198073   -0.6700
      7 C7        -10.0246   -1.2610   55.6804 C.ar    1  ZINC000471198073    0.1600
      8 C8        -11.3418   -1.4080   55.2647 C.ar    1  ZINC000471198073   -0.1500
      9 C9        -11.7361   -0.9286   54.0300 C.ar    1  ZINC000471198073   -0.0800
     10 C10       -10.8225   -0.3019   53.2053 C.ar    1  ZINC000471198073   -0.1300
     11 C11        -9.5027   -0.1520   53.6150 C.ar    1  ZINC000471198073    0.1500
     12 N12        -8.5787    0.4817   52.7801 N.am    1  ZINC000471198073   -0.6400
     13 C13        -7.8127   -0.2488   51.9458 C.2     1  ZINC000471198073    0.5100
     14 O14        -7.9254   -1.4570   51.9196 O.2     1  ZINC000471198073   -0.5000
     15 C15        -6.8250    0.4285   51.0533 C.2     1  ZINC000471198073    0.5100
     16 O16        -6.3476   -0.1701   50.1117 O.2     1  ZINC000471198073   -0.5100
     17 N17        -6.4638    1.7046   51.2937 N.am    1  ZINC000471198073   -0.7000
     18 C18        -5.4938    2.3684   50.4194 C.3     1  ZINC000471198073    0.1200
     19 C19        -4.6834    3.3802   51.2321 C.3     1  ZINC000471198073   -0.0900
     20 H20        -4.1418    2.8608   52.0226 H       1  ZINC000471198073    0.0800
     21 C21        -3.6875    4.0914   50.3138 C.3     1  ZINC000471198073   -0.0800
     22 C22        -2.7944    3.0715   49.6555 C.ar    1  ZINC000471198073   -0.0800
     23 C23        -1.7276    2.5350   50.3519 C.ar    1  ZINC000471198073   -0.1200
     24 C24        -0.9083    1.5995   49.7481 C.ar    1  ZINC000471198073   -0.1200
     25 C25        -1.1562    1.2002   48.4480 C.ar    1  ZINC000471198073   -0.1200
     26 C26        -2.2235    1.7361   47.7520 C.ar    1  ZINC000471198073   -0.1200
     27 C27        -3.0453    2.6683   48.3573 C.ar    1  ZINC000471198073   -0.1200
     28 C28        -5.6292    4.4098   51.8534 C.3     1  ZINC000471198073   -0.1000
     29 C29        -4.8412    5.3239   52.7939 C.3     1  ZINC000471198073   -0.1600
     30 C30        -6.2695    5.2483   50.7453 C.3     1  ZINC000471198073   -0.1700
     31 C31        -9.1052   -0.6274   54.8568 C.ar    1  ZINC000471198073   -0.1400
     32 H32        -8.0444   -0.9050   60.9846 H       1  ZINC000471198073    0.0700
     33 H33        -7.4817   -0.4262   59.3652 H       1  ZINC000471198073    0.0600
     34 H34        -8.8299    0.4462   60.1329 H       1  ZINC000471198073    0.0600
     35 H35        -8.8719   -2.4765   59.2542 H       1  ZINC000471198073    0.1000
     36 H36       -11.0478   -0.6715   60.4049 H       1  ZINC000471198073    0.0600
     37 H37       -11.2797   -2.3404   59.8309 H       1  ZINC000471198073    0.0600
     38 H38       -10.2623   -2.0228   61.2566 H       1  ZINC000471198073    0.0700
     39 H39        -9.2433   -2.6342   57.0070 H       1  ZINC000471198073    0.4100
     40 H40       -12.0587   -1.8979   55.9070 H       1  ZINC000471198073    0.1300
     41 H41       -12.7608   -1.0445   53.7091 H       1  ZINC000471198073    0.1300
     42 H42       -11.1337    0.0716   52.2409 H       1  ZINC000471198073    0.1400
     43 H43        -8.4886    1.4473   52.8010 H       1  ZINC000471198073    0.4200
     44 H44        -6.8463    2.1834   52.0456 H       1  ZINC000471198073    0.4200
     45 H45        -4.8218    1.6245   49.9915 H       1  ZINC000471198073    0.0700
     46 H46        -6.0213    2.8854   49.6178 H       1  ZINC000471198073    0.0800
     47 H47        -4.2308    4.6462   49.5489 H       1  ZINC000471198073    0.0800
     48 H48        -3.0807    4.7809   50.9007 H       1  ZINC000471198073    0.0800
     49 H49        -1.5339    2.8470   51.3676 H       1  ZINC000471198073    0.1200
     50 H50        -0.0744    1.1809   50.2919 H       1  ZINC000471198073    0.1200
     51 H51        -0.5157    0.4699   47.9761 H       1  ZINC000471198073    0.1200
     52 H52        -2.4170    1.4244   46.7363 H       1  ZINC000471198073    0.1200
     53 H53        -3.8793    3.0871   47.8135 H       1  ZINC000471198073    0.1200
     54 H54        -6.4083    3.8948   52.4156 H       1  ZINC000471198073    0.0800
     55 H55        -4.1279    5.9116   52.2162 H       1  ZINC000471198073    0.0600
     56 H56        -5.5291    5.9930   53.3109 H       1  ZINC000471198073    0.0600
     57 H57        -4.3055    4.7182   53.5248 H       1  ZINC000471198073    0.0600
     58 H58        -6.7232    4.5880   50.0062 H       1  ZINC000471198073    0.0600
     59 H59        -7.0357    5.8937   51.1748 H       1  ZINC000471198073    0.0600
     60 H60        -5.5058    5.8605   50.2656 H       1  ZINC000471198073    0.0700
     61 H61        -8.0804   -0.5122   55.1776 H       1  ZINC000471198073    0.1400
@<TRIPOS>BOND
     1     1     2    1
     2     1    32    1
     3     1    33    1
     4     1    34    1
     5     2     3    1
     6     2     4    1
     7     2    35    1
     8     3    36    1
     9     3    37    1
    10     3    38    1
    11     4     5    2
    12     4     6   am
    13     6     7    1
    14     6    39    1
    15     7    31   ar
    16     7     8   ar
    17     8     9   ar
    18     8    40    1
    19     9    10   ar
    20     9    41    1
    21    10    11   ar
    22    10    42    1
    23    11    12    1
    24    11    31   ar
    25    12    13   am
    26    12    43    1
    27    13    14    2
    28    13    15    1
    29    15    16    2
    30    15    17   am
    31    17    18    1
    32    17    44    1
    33    18    19    1
    34    18    45    1
    35    18    46    1
    36    19    20    1
    37    19    21    1
    38    19    28    1
    39    21    22    1
    40    21    47    1
    41    21    48    1
    42    22    27   ar
    43    22    23   ar
    44    23    24   ar
    45    23    49    1
    46    24    25   ar
    47    24    50    1
    48    25    26   ar
    49    25    51    1
    50    26    27   ar
    51    26    52    1
    52    27    53    1
    53    28    29    1
    54    28    30    1
    55    28    54    1
    56    29    55    1
    57    29    56    1
    58    29    57    1
    59    30    58    1
    60    30    59    1
    61    30    60    1
    62    31    61    1
@<TRIPOS>SUBSTRUCTURE
     1 ZINC000471198073        1 TEMP              0 ****  ****    0 ROOT


##########                                Name:    ZINC000033150761
##########                DOCK_Rotatable_Bonds:                   7
##########                         Heavy_Atoms:                  29
##########                    Molecular_Weight:             413.407
##########                DOCK_Rotatable_Bonds:                   7
##########                       Formal_Charge:          0.00999993
##########                     HBond_Acceptors:                  10
##########                        HBond_Donors:                   1
##########                         Heavy_Atoms:                  29
##########                          Grid_Score:          -33.988052
##########                     Grid_vdw_energy:          -34.445312
##########                      Grid_es_energy:            0.457259
##########           Internal_energy_repulsive:            4.138293

@<TRIPOS>MOLECULE
ZINC000033150761
 42 45 1 0 0
SMALL
USER_CHARGES


@<TRIPOS>ATOM
      1 O1         -8.0510    1.7267   51.7787 O.2     1  ZINC000033150761   -0.5000
      2 C2         -7.3418    0.7925   51.4702 C.2     1  ZINC000033150761    0.5200
      3 C3         -6.1547    1.0133   50.5683 C.3     1  ZINC000033150761   -0.1300
      4 C4         -5.9001    2.5146   50.4188 C.3     1  ZINC000033150761   -0.0100
      5 C5         -4.6111    2.7332   49.6692 C.2     1  ZINC000033150761    0.1800
      6 N6         -4.0815    1.9293   48.7814 N.2     1  ZINC000033150761   -0.4400
      7 C7         -2.9389    2.5316   48.3818 C.2     1  ZINC000033150761    0.2200
      8 C8         -1.9741    2.0145   47.3786 C.ar    1  ZINC000033150761    0.1900
      9 C9         -0.9033    2.8085   46.9776 C.ar    1  ZINC000033150761   -0.1300
     10 C10        -0.0114    2.3128   46.0409 C.ar    1  ZINC000033150761   -0.0700
     11 C11        -0.2218    1.0380   45.5368 C.ar    1  ZINC000033150761   -0.1500
     12 C12        -1.3075    0.3039   45.9803 C.ar    1  ZINC000033150761    0.1100
     13 N13        -2.1369    0.7978   46.8760 N.ar    1  ZINC000033150761   -0.4500
     14 N14        -2.8425    3.6547   49.0438 N.2     1  ZINC000033150761   -0.3600
     15 O15        -3.7964    3.7870   49.7813 O.3     1  ZINC000033150761    0.0900
     16 N16        -7.6118   -0.4421   51.9384 N.am    1  ZINC000033150761   -0.6200
     17 C17        -8.7063   -0.6457   52.7699 C.2     1  ZINC000033150761    0.2700
     18 N18        -8.6449   -0.9223   54.0352 N.2     1  ZINC000033150761   -0.5000
     19 C19        -9.7960   -1.0842   54.6725 C.2     1  ZINC000033150761    0.1200
     20 C20        -9.8630   -1.4027   56.1197 C.ar    1  ZINC000033150761    0.0000
     21 C21        -9.4158   -0.4768   57.0603 C.ar    1  ZINC000033150761   -0.0800
     22 C22        -9.4799   -0.7762   58.4062 C.ar    1  ZINC000033150761   -0.1200
     23 C23        -9.9879   -1.9946   58.8237 C.ar    1  ZINC000033150761    0.0700
     24 F24       -10.0487   -2.2830   60.1421 F       1  ZINC000033150761   -0.1300
     25 C25       -10.4352   -2.9203   57.8915 C.ar    1  ZINC000033150761    0.0700
     26 F26       -10.9305   -4.1078   58.3036 F       1  ZINC000033150761   -0.1300
     27 C27       -10.3790   -2.6266   56.5428 C.ar    1  ZINC000033150761   -0.1000
     28 C28       -10.8989   -0.9395   53.9164 C.2     1  ZINC000033150761   -0.2800
     29 S29       -10.3932   -0.5609   52.2714 S.3     1  ZINC000033150761    0.2200
     30 H30        -5.2753    0.5370   51.0020 H       1  ZINC000033150761    0.1200
     31 H31        -6.3569    0.5798   49.5889 H       1  ZINC000033150761    0.1200
     32 H32        -6.7229    2.9695   49.8673 H       1  ZINC000033150761    0.1300
     33 H33        -5.8282    2.9709   51.4061 H       1  ZINC000033150761    0.1200
     34 H34        -0.7700    3.7973   47.3909 H       1  ZINC000033150761    0.1400
     35 H35         0.8286    2.9056   45.7104 H       1  ZINC000033150761    0.1500
     36 H36         0.4551    0.6224   44.8050 H       1  ZINC000033150761    0.1400
     37 H37        -1.4746   -0.6891   45.5900 H       1  ZINC000033150761    0.1700
     38 H38        -7.0422   -1.1885   51.6948 H       1  ZINC000033150761    0.4300
     39 H39        -9.0188    0.4739   56.7363 H       1  ZINC000033150761    0.1400
     40 H40        -9.1329   -0.0587   59.1350 H       1  ZINC000033150761    0.1500
     41 H41       -10.7270   -3.3469   55.8172 H       1  ZINC000033150761    0.1600
     42 H42       -11.9185   -1.0345   54.2594 H       1  ZINC000033150761    0.1800
@<TRIPOS>BOND
     1     1     2    2
     2     2     3    1
     3     2    16   am
     4     3     4    1
     5     3    30    1
     6     3    31    1
     7     4     5    1
     8     4    32    1
     9     4    33    1
    10     5    15    1
    11     5     6    2
    12     6     7    1
    13     7     8    1
    14     7    14    2
    15     8    13   ar
    16     8     9   ar
    17     9    10   ar
    18     9    34    1
    19    10    11   ar
    20    10    35    1
    21    11    12   ar
    22    11    36    1
    23    12    13   ar
    24    12    37    1
    25    14    15    1
    26    16    17    1
    27    16    38    1
    28    17    29    1
    29    17    18    2
    30    18    19    1
    31    19    20    1
    32    19    28    2
    33    20    27   ar
    34    20    21   ar
    35    21    22   ar
    36    21    39    1
    37    22    23   ar
    38    22    40    1
    39    23    24    1
    40    23    25   ar
    41    25    26    1
    42    25    27   ar
    43    27    41    1
    44    28    29    1
    45    28    42    1
@<TRIPOS>SUBSTRUCTURE
     1 ZINC000033150761        1 TEMP              0 ****  ****    0 ROOT


##########                                Name:    ZINC000590699876
##########                DOCK_Rotatable_Bonds:                   9
##########                         Heavy_Atoms:                  30
##########                    Molecular_Weight:              421.54
##########                DOCK_Rotatable_Bonds:                   9
##########                       Formal_Charge:          -0.0300004
##########                     HBond_Acceptors:                   9
##########                        HBond_Donors:                   1
##########                         Heavy_Atoms:                  30
##########                          Grid_Score:          -33.947754
##########                     Grid_vdw_energy:          -34.212067
##########                      Grid_es_energy:            0.264314
##########           Internal_energy_repulsive:          101.081604

@<TRIPOS>MOLECULE
ZINC000590699876
 65 67 1 0 0
SMALL
USER_CHARGES


@<TRIPOS>ATOM
      1 C1         -2.0573    1.5249   45.2847 C.3     1  ZINC000590699876   -0.1700
      2 C2         -1.4595    1.9696   46.5946 C.2     1  ZINC000590699876    0.5100
      3 O3         -0.4769    2.6803   46.6025 O.2     1  ZINC000590699876   -0.5500
      4 N4         -2.0170    1.5776   47.7573 N.am    1  ZINC000590699876   -0.7200
      5 C5         -1.4370    2.0113   49.0308 C.3     1  ZINC000590699876    0.1100
      6 C6         -2.4233    1.7628   50.1427 C.2     1  ZINC000590699876    0.5300
      7 O7         -2.3398    0.7559   50.8136 O.2     1  ZINC000590699876   -0.5200
      8 N8         -3.3983    2.6594   50.3915 N.am    1  ZINC000590699876   -0.6000
      9 C9         -3.6149    3.9193   49.6571 C.3     1  ZINC000590699876    0.1000
     10 C10        -5.1145    4.2470   49.8654 C.3     1  ZINC000590699876   -0.1300
     11 C11        -5.3342    3.7831   51.3296 C.3     1  ZINC000590699876   -0.1300
     12 C12        -4.4259    2.5400   51.4361 C.3     1  ZINC000590699876    0.1200
     13 H13        -3.9497    2.5119   52.4161 H       1  ZINC000590699876    0.1000
     14 C14        -5.2412    1.2901   51.2267 C.2     1  ZINC000590699876    0.5100
     15 O15        -5.1851    0.6997   50.1687 O.2     1  ZINC000590699876   -0.5200
     16 N16        -6.0328    0.8283   52.2149 N.am    1  ZINC000590699876   -0.6100
     17 C17        -6.1216    1.5332   53.5027 C.3     1  ZINC000590699876    0.1000
     18 C18        -7.6007    1.7616   53.8315 C.3     1  ZINC000590699876    0.0400
     19 N19        -8.3155    0.4795   53.7747 N.3     1  ZINC000590699876   -0.5200
     20 C20        -9.6977    0.6257   54.2501 C.3     1  ZINC000590699876    0.0400
     21 C21       -10.1246   -0.6387   54.9499 C.2     1  ZINC000590699876    0.5200
     22 O22        -9.3052   -1.4942   55.2099 O.2     1  ZINC000590699876   -0.5100
     23 N23       -11.4170   -0.8189   55.2870 N.am    1  ZINC000590699876   -0.6100
     24 C24       -12.4213    0.2084   54.9788 C.3     1  ZINC000590699876    0.1100
     25 C25       -13.1702    0.5676   56.2660 C.3     1  ZINC000590699876   -0.1400
     26 C26       -13.7451   -0.7064   56.8894 C.3     1  ZINC000590699876   -0.1200
     27 C27       -12.6040   -1.6621   57.2451 C.3     1  ZINC000590699876   -0.1300
     28 C28       -11.8496   -2.0490   55.9640 C.3     1  ZINC000590699876    0.1400
     29 H29       -12.5088   -2.6199   55.3101 H       1  ZINC000590699876    0.0700
     30 C30       -10.6266   -2.8947   56.3245 C.3     1  ZINC000590699876   -0.1400
     31 C31        -8.2818   -0.0896   52.4209 C.3     1  ZINC000590699876    0.0400
     32 C32        -6.8353   -0.3906   52.0320 C.3     1  ZINC000590699876    0.1200
     33 H33        -1.4753    1.9379   44.4609 H       1  ZINC000590699876    0.1000
     34 H34        -2.0431    0.4364   45.2297 H       1  ZINC000590699876    0.0900
     35 H35        -3.0860    1.8787   45.2160 H       1  ZINC000590699876    0.0900
     36 H36        -2.8023    1.0082   47.7511 H       1  ZINC000590699876    0.4100
     37 H37        -0.5229    1.4497   49.2237 H       1  ZINC000590699876    0.1000
     38 H38        -1.2059    3.0754   48.9810 H       1  ZINC000590699876    0.1000
     39 H39        -2.9921    4.7120   50.0718 H       1  ZINC000590699876    0.0800
     40 H40        -3.4002    3.7823   48.5973 H       1  ZINC000590699876    0.0800
     41 H41        -5.2987    5.3164   49.7627 H       1  ZINC000590699876    0.0900
     42 H42        -5.7384    3.6768   49.1771 H       1  ZINC000590699876    0.0800
     43 H43        -5.0197    4.5563   52.0305 H       1  ZINC000590699876    0.1000
     44 H44        -6.3766    3.5114   51.4958 H       1  ZINC000590699876    0.0900
     45 H45        -5.6621    0.9278   54.2839 H       1  ZINC000590699876    0.0800
     46 H46        -5.6099    2.4930   53.4308 H       1  ZINC000590699876    0.0900
     47 H47        -7.6898    2.1837   54.8326 H       1  ZINC000590699876    0.0900
     48 H48        -8.0323    2.4512   53.1060 H       1  ZINC000590699876    0.0400
     49 H49        -9.7561    1.4633   54.9452 H       1  ZINC000590699876    0.1000
     50 H50       -10.3560    0.8115   53.4015 H       1  ZINC000590699876    0.0600
     51 H51       -11.9268    1.0959   54.5840 H       1  ZINC000590699876    0.0800
     52 H52       -13.1254   -0.1783   54.2422 H       1  ZINC000590699876    0.0700
     53 H53       -12.4818    1.0376   56.9684 H       1  ZINC000590699876    0.0700
     54 H54       -13.9817    1.2575   56.0343 H       1  ZINC000590699876    0.0800
     55 H55       -14.2995   -0.4507   57.7923 H       1  ZINC000590699876    0.0700
     56 H56       -14.4144   -1.1891   56.1772 H       1  ZINC000590699876    0.0600
     57 H57       -11.9209   -1.1711   57.9383 H       1  ZINC000590699876    0.0700
     58 H58       -13.0126   -2.5593   57.7103 H       1  ZINC000590699876    0.0700
     59 H59       -10.9440   -3.7679   56.8948 H       1  ZINC000590699876    0.0400
     60 H60       -10.1272   -3.2190   55.4116 H       1  ZINC000590699876    0.0700
     61 H61        -9.9376   -2.3000   56.9242 H       1  ZINC000590699876    0.0700
     62 H62        -8.8649   -1.0104   52.3988 H       1  ZINC000590699876    0.1100
     63 H63        -8.7040    0.6256   51.7149 H       1  ZINC000590699876    0.0300
     64 H64        -6.7943   -0.7049   50.9892 H       1  ZINC000590699876    0.0900
     65 H65        -6.4412   -1.1807   52.6712 H       1  ZINC000590699876    0.0800
@<TRIPOS>BOND
     1     1     2    1
     2     1    33    1
     3     1    34    1
     4     1    35    1
     5     2     3    2
     6     2     4   am
     7     4     5    1
     8     4    36    1
     9     5     6    1
    10     5    37    1
    11     5    38    1
    12     6     7    2
    13     6     8   am
    14     8    12    1
    15     8     9    1
    16     9    10    1
    17     9    39    1
    18     9    40    1
    19    10    11    1
    20    10    41    1
    21    10    42    1
    22    11    12    1
    23    11    43    1
    24    11    44    1
    25    12    13    1
    26    12    14    1
    27    14    15    2
    28    14    16   am
    29    16    32    1
    30    16    17    1
    31    17    18    1
    32    17    45    1
    33    17    46    1
    34    18    19    1
    35    18    47    1
    36    18    48    1
    37    19    20    1
    38    19    31    1
    39    20    21    1
    40    20    49    1
    41    20    50    1
    42    21    22    2
    43    21    23   am
    44    23    28    1
    45    23    24    1
    46    24    25    1
    47    24    51    1
    48    24    52    1
    49    25    26    1
    50    25    53    1
    51    25    54    1
    52    26    27    1
    53    26    55    1
    54    26    56    1
    55    27    28    1
    56    27    57    1
    57    27    58    1
    58    28    29    1
    59    28    30    1
    60    30    59    1
    61    30    60    1
    62    30    61    1
    63    31    32    1
    64    31    62    1
    65    31    63    1
    66    32    64    1
    67    32    65    1
@<TRIPOS>SUBSTRUCTURE
     1 ZINC000590699876        1 TEMP              0 ****  ****    0 ROOT


##########                                Name:    ZINC000538774026
##########                DOCK_Rotatable_Bonds:                  10
##########                         Heavy_Atoms:                  29
##########                    Molecular_Weight:             414.496
##########                DOCK_Rotatable_Bonds:                  10
##########                       Formal_Charge:            0.049999
##########                     HBond_Acceptors:                   9
##########                        HBond_Donors:                   2
##########                         Heavy_Atoms:                  29
##########                          Grid_Score:          -33.923306
##########                     Grid_vdw_energy:          -32.909649
##########                      Grid_es_energy:           -1.013658
##########           Internal_energy_repulsive:           23.452374

@<TRIPOS>MOLECULE
ZINC000538774026
 61 62 1 0 0
SMALL
USER_CHARGES


@<TRIPOS>ATOM
      1 C1          2.5322    0.9759   43.2694 C.3     1  ZINC000538774026   -0.1500
      2 C2          1.9670    0.7344   44.6706 C.3     1  ZINC000538774026   -0.1100
      3 C3          3.0243    0.0447   45.5351 C.3     1  ZINC000538774026   -0.1400
      4 C4          1.5847    2.0737   45.3040 C.3     1  ZINC000538774026    0.1400
      5 N5          0.8002    1.8336   46.5177 N.pl3   1  ZINC000538774026   -0.3400
      6 N6          1.3060    1.7336   47.8201 N.2     1  ZINC000538774026   -0.2500
      7 C7          0.3057    1.5178   48.6354 C.2     1  ZINC000538774026    0.0500
      8 C8         -0.8760    1.4723   47.8817 C.2     1  ZINC000538774026    0.0800
      9 N9         -2.1738    1.2606   48.3862 N.am    1  ZINC000538774026   -0.6600
     10 C10        -2.8901    2.2990   48.8606 C.2     1  ZINC000538774026    0.7100
     11 O11        -2.4153    3.4185   48.8543 O.2     1  ZINC000538774026   -0.5700
     12 N12        -4.1326    2.0967   49.3418 N.am    1  ZINC000538774026   -0.7300
     13 C13        -4.9105    3.2253   49.8591 C.3     1  ZINC000538774026    0.1600
     14 C14        -6.4019    2.9554   49.6493 C.3     1  ZINC000538774026   -0.1300
     15 C15        -6.7988    1.6788   50.3934 C.3     1  ZINC000538774026   -0.1000
     16 C16        -6.5167    1.8506   51.8873 C.3     1  ZINC000538774026   -0.0800
     17 C17        -6.9076    0.5930   52.6202 C.2     1  ZINC000538774026    0.4700
     18 O18        -7.0474   -0.4417   52.0122 O.2     1  ZINC000538774026   -0.5000
     19 O19        -7.1003    0.6226   53.9482 O.3     1  ZINC000538774026   -0.3500
     20 C20        -8.4320    0.9669   54.4135 C.3     1  ZINC000538774026    0.1200
     21 C21        -8.3969    2.3385   55.0905 C.3     1  ZINC000538774026   -0.1800
     22 C22        -9.3927    1.0098   53.2235 C.3     1  ZINC000538774026   -0.1400
     23 C23        -8.9094   -0.0850   55.4168 C.3     1  ZINC000538774026   -0.1800
     24 C24        -5.0254    2.1204   52.0970 C.3     1  ZINC000538774026   -0.1100
     25 C25        -4.6285    3.3970   51.3530 C.3     1  ZINC000538774026   -0.1300
     26 C26        -0.5475    1.6744   46.5803 C.2     1  ZINC000538774026   -0.0500
     27 C27        -1.5031    1.7073   45.4155 C.3     1  ZINC000538774026    0.3500
     28 F28        -1.2115    2.8090   44.6041 F       1  ZINC000538774026   -0.1900
     29 F29        -1.3701    0.5309   44.6700 F       1  ZINC000538774026   -0.1900
     30 H30         2.8046    0.0219   42.8182 H       1  ZINC000538774026    0.0600
     31 H31         1.7790    1.4673   42.6537 H       1  ZINC000538774026    0.0600
     32 H32         3.4156    1.6106   43.3384 H       1  ZINC000538774026    0.0600
     33 H33         1.0836    0.0997   44.6017 H       1  ZINC000538774026    0.0800
     34 H34         3.9077    0.6794   45.6041 H       1  ZINC000538774026    0.0600
     35 H35         2.6217   -0.1272   46.5334 H       1  ZINC000538774026    0.0600
     36 H36         3.2967   -0.9093   45.0839 H       1  ZINC000538774026    0.0600
     37 H37         2.4890    2.6261   45.5593 H       1  ZINC000538774026    0.1000
     38 H38         0.9919    2.6539   44.5971 H       1  ZINC000538774026    0.1000
     39 H39         0.3779    1.3952   49.7060 H       1  ZINC000538774026    0.2100
     40 H40        -2.5521    0.3674   48.3923 H       1  ZINC000538774026    0.4100
     41 H41        -4.5119    1.2039   49.3457 H       1  ZINC000538774026    0.4000
     42 H42        -4.6278    4.1347   49.3291 H       1  ZINC000538774026    0.1000
     43 H43        -6.9806    3.7950   50.0342 H       1  ZINC000538774026    0.0800
     44 H44        -6.6028    2.8330   48.5851 H       1  ZINC000538774026    0.0800
     45 H45        -7.8613    1.4866   50.2440 H       1  ZINC000538774026    0.0700
     46 H46        -6.2200    0.8391   50.0086 H       1  ZINC000538774026    0.0700
     47 H47        -7.0955    2.6901   52.2721 H       1  ZINC000538774026    0.1100
     48 H48        -8.0567    3.0878   54.3757 H       1  ZINC000538774026    0.0600
     49 H49        -9.3966    2.5970   55.4398 H       1  ZINC000538774026    0.0700
     50 H50        -7.7125    2.3079   55.9382 H       1  ZINC000538774026    0.0800
     51 H51        -9.4177    0.0327   52.7412 H       1  ZINC000538774026    0.0700
     52 H52       -10.3924    1.2684   53.5728 H       1  ZINC000538774026    0.0800
     53 H53        -9.0526    1.7592   52.5087 H       1  ZINC000538774026    0.0700
     54 H54        -8.2250   -0.1156   56.2645 H       1  ZINC000538774026    0.0800
     55 H55        -9.9091    0.1735   55.7661 H       1  ZINC000538774026    0.0700
     56 H56        -8.9345   -1.0622   54.9344 H       1  ZINC000538774026    0.0600
     57 H57        -4.8244    2.2427   53.1613 H       1  ZINC000538774026    0.0800
     58 H58        -4.4466    1.2807   51.7122 H       1  ZINC000538774026    0.0600
     59 H59        -3.5660    3.5892   51.5025 H       1  ZINC000538774026    0.0800
     60 H60        -5.2073    4.2366   51.7379 H       1  ZINC000538774026    0.0900
     61 H61        -2.5249    1.7891   45.7860 H       1  ZINC000538774026    0.1300
@<TRIPOS>BOND
     1     1     2    1
     2     1    30    1
     3     1    31    1
     4     1    32    1
     5     2     3    1
     6     2     4    1
     7     2    33    1
     8     3    34    1
     9     3    35    1
    10     3    36    1
    11     4     5    1
    12     4    37    1
    13     4    38    1
    14     5    26    1
    15     5     6    1
    16     6     7    2
    17     7     8    1
    18     7    39    1
    19     8     9    1
    20     8    26    2
    21     9    10   am
    22     9    40    1
    23    10    11    2
    24    10    12   am
    25    12    13    1
    26    12    41    1
    27    13    25    1
    28    13    14    1
    29    13    42    1
    30    14    15    1
    31    14    43    1
    32    14    44    1
    33    15    16    1
    34    15    45    1
    35    15    46    1
    36    16    17    1
    37    16    24    1
    38    16    47    1
    39    17    18    2
    40    17    19    1
    41    19    20    1
    42    20    21    1
    43    20    22    1
    44    20    23    1
    45    21    48    1
    46    21    49    1
    47    21    50    1
    48    22    51    1
    49    22    52    1
    50    22    53    1
    51    23    54    1
    52    23    55    1
    53    23    56    1
    54    24    25    1
    55    24    57    1
    56    24    58    1
    57    25    59    1
    58    25    60    1
    59    26    27    1
    60    27    28    1
    61    27    29    1
    62    27    61    1
@<TRIPOS>SUBSTRUCTURE
     1 ZINC000538774026        1 TEMP              0 ****  ****    0 ROOT


##########                                Name:    ZINC000015179664
##########                DOCK_Rotatable_Bonds:                   8
##########                         Heavy_Atoms:                  25
##########                    Molecular_Weight:             361.422
##########                DOCK_Rotatable_Bonds:                   8
##########                       Formal_Charge:        -2.23517e-07
##########                     HBond_Acceptors:                   8
##########                        HBond_Donors:                   1
##########                         Heavy_Atoms:                  25
##########                          Grid_Score:          -33.922230
##########                     Grid_vdw_energy:          -33.566120
##########                      Grid_es_energy:           -0.356109
##########           Internal_energy_repulsive:           25.506212

@<TRIPOS>MOLECULE
ZINC000015179664
 44 45 1 0 0
SMALL
USER_CHARGES


@<TRIPOS>ATOM
      1 C1          0.0832    1.7888   50.1793 C.3     1  ZINC000015179664   -0.1600
      2 C2         -1.2742    1.5095   49.5309 C.3     1  ZINC000015179664    0.1800
      3 H3         -1.6220    0.5202   49.8278 H       1  ZINC000015179664    0.1200
      4 C4         -1.1353    1.5642   48.0313 C.ar    1  ZINC000015179664   -0.1000
      5 C5         -0.8463    2.7630   47.4072 C.ar    1  ZINC000015179664   -0.0700
      6 C6         -0.7189    2.8130   46.0314 C.ar    1  ZINC000015179664   -0.1200
      7 C7         -0.8801    1.6641   45.2802 C.ar    1  ZINC000015179664   -0.0500
      8 C8         -1.1681    0.4647   45.9046 C.ar    1  ZINC000015179664   -0.0400
      9 N9         -1.3412   -0.7657   45.1000 N.pl3   1  ZINC000015179664    0.0300
     10 O10        -1.2298   -0.7214   43.8880 O.2     1  ZINC000015179664   -0.1600
     11 O11        -1.5951   -1.8223   45.6502 O.2     1  ZINC000015179664   -0.1500
     12 C12        -1.2913    0.4138   47.2803 C.ar    1  ZINC000015179664   -0.0400
     13 N13        -2.2414    2.5190   49.9688 N.am    1  ZINC000015179664   -0.6100
     14 C14        -1.7816    3.7131   50.6823 C.3     1  ZINC000015179664    0.0600
     15 C15        -3.5541    2.3493   49.7151 C.2     1  ZINC000015179664    0.5200
     16 O16        -3.9345    1.3615   49.1231 O.2     1  ZINC000015179664   -0.5200
     17 C17        -4.5492    3.3868   50.1670 C.3     1  ZINC000015179664   -0.1500
     18 C18        -5.9441    3.0085   49.6649 C.3     1  ZINC000015179664    0.1300
     19 N19        -6.7502    2.5178   50.7854 N.am    1  ZINC000015179664   -0.7300
     20 C20        -6.9255    1.1931   50.9603 C.2     1  ZINC000015179664    0.5800
     21 O21        -6.4132    0.4047   50.1886 O.2     1  ZINC000015179664   -0.5300
     22 C22        -7.7369    0.7002   52.0851 C.2     1  ZINC000015179664   -0.1500
     23 C23        -7.8247   -0.6130   52.4277 C.2     1  ZINC000015179664   -0.2200
     24 S24        -8.8481   -0.8206   53.7747 S.3     1  ZINC000015179664    0.1900
     25 C25        -9.1723    0.9005   53.8884 C.2     1  ZINC000015179664   -0.2300
     26 C26        -8.5168    1.5623   52.9422 C.2     1  ZINC000015179664   -0.0900
     27 H27         0.8029    1.0377   49.8535 H       1  ZINC000015179664    0.0800
     28 H28         0.4311    2.7782   49.8823 H       1  ZINC000015179664    0.0600
     29 H29        -0.0172    1.7493   51.2639 H       1  ZINC000015179664    0.0700
     30 H30        -0.7204    3.6607   47.9941 H       1  ZINC000015179664    0.1500
     31 H31        -0.4938    3.7499   45.5437 H       1  ZINC000015179664    0.1500
     32 H32        -0.7812    1.7033   44.2055 H       1  ZINC000015179664    0.1600
     33 H33        -1.5164   -0.5231   47.7681 H       1  ZINC000015179664    0.1600
     34 H34        -1.5184    4.4878   49.9623 H       1  ZINC000015179664    0.0600
     35 H35        -2.5774    4.0766   51.3325 H       1  ZINC000015179664    0.0800
     36 H36        -0.9071    3.4631   51.2832 H       1  ZINC000015179664    0.0800
     37 H37        -4.5556    3.4340   51.2560 H       1  ZINC000015179664    0.1000
     38 H38        -4.2689    4.3594   49.7629 H       1  ZINC000015179664    0.1000
     39 H39        -6.4233    3.8851   49.2289 H       1  ZINC000015179664    0.0800
     40 H40        -5.8588    2.2276   48.9092 H       1  ZINC000015179664    0.0800
     41 H41        -7.1577    3.1465   51.4016 H       1  ZINC000015179664    0.4000
     42 H42        -7.3149   -1.4157   51.9154 H       1  ZINC000015179664    0.1700
     43 H43        -9.8129    1.3582   54.6277 H       1  ZINC000015179664    0.1700
     44 H44        -8.5676    2.6342   52.8212 H       1  ZINC000015179664    0.1600
@<TRIPOS>BOND
     1     1     2    1
     2     1    27    1
     3     1    28    1
     4     1    29    1
     5     2     3    1
     6     2     4    1
     7     2    13    1
     8     4    12   ar
     9     4     5   ar
    10     5     6   ar
    11     5    30    1
    12     6     7   ar
    13     6    31    1
    14     7     8   ar
    15     7    32    1
    16     8     9    1
    17     8    12   ar
    18     9    10    2
    19     9    11    2
    20    12    33    1
    21    13    14    1
    22    13    15   am
    23    14    34    1
    24    14    35    1
    25    14    36    1
    26    15    16    2
    27    15    17    1
    28    17    18    1
    29    17    37    1
    30    17    38    1
    31    18    19    1
    32    18    39    1
    33    18    40    1
    34    19    20   am
    35    19    41    1
    36    20    21    2
    37    20    22    1
    38    22    26    1
    39    22    23    2
    40    23    24    1
    41    23    42    1
    42    24    25    1
    43    25    26    2
    44    25    43    1
    45    26    44    1
@<TRIPOS>SUBSTRUCTURE
     1 ZINC000015179664        1 TEMP              0 ****  ****    0 ROOT


##########                                Name:    ZINC000821177065
##########                DOCK_Rotatable_Bonds:                  10
##########                         Heavy_Atoms:                  25
##########                    Molecular_Weight:             341.413
##########                DOCK_Rotatable_Bonds:                  10
##########                       Formal_Charge:          0.00999917
##########                     HBond_Acceptors:                   7
##########                        HBond_Donors:                   3
##########                         Heavy_Atoms:                  25
##########                          Grid_Score:          -33.903698
##########                     Grid_vdw_energy:          -28.044893
##########                      Grid_es_energy:           -5.858806
##########           Internal_energy_repulsive:           18.221914

@<TRIPOS>MOLECULE
ZINC000821177065
 48 51 1 0 0
SMALL
USER_CHARGES


@<TRIPOS>ATOM
      1 O1         -2.3864    1.7368   46.9529 O.2     1  ZINC000821177065   -0.5600
      2 C2         -1.7215    1.1748   47.8018 C.2     1  ZINC000821177065    0.7100
      3 N3         -0.5518    0.5949   47.4670 N.am    1  ZINC000821177065   -0.7300
      4 C4         -0.0842    0.6369   46.0792 C.3     1  ZINC000821177065    0.1200
      5 C5          1.4261    0.3948   46.0423 C.3     1  ZINC000821177065    0.1900
      6 O6          1.7206   -0.8694   46.6400 O.3     1  ZINC000821177065   -0.5400
      7 C7          1.9077    0.3970   44.5902 C.3     1  ZINC000821177065   -0.1500
      8 C8          0.8498    0.5485   43.4953 C.3     1  ZINC000821177065   -0.1600
      9 C9          1.7957    1.7089   43.8108 C.3     1  ZINC000821177065   -0.1700
     10 C10         2.1394    1.5042   46.8179 C.3     1  ZINC000821177065   -0.1800
     11 C11         2.8200    1.1212   48.1335 C.3     1  ZINC000821177065   -0.1900
     12 C12         3.6660    1.4401   46.8992 C.3     1  ZINC000821177065   -0.1700
     13 N13        -2.1516    1.1362   49.0784 N.am    1  ZINC000821177065   -0.6500
     14 C14        -3.3684    1.7393   49.4267 C.2     1  ZINC000821177065    0.3200
     15 N15        -4.4679    1.1127   49.7732 N.2     1  ZINC000821177065   -0.3200
     16 N16        -5.4517    2.0728   50.0419 N.pl3   1  ZINC000821177065   -0.3600
     17 C17        -6.8283    1.8001   50.4623 C.3     1  ZINC000821177065    0.1900
     18 C18        -6.8576    1.5360   51.9457 C.ar    1  ZINC000821177065    0.1100
     19 C19        -7.7570    0.6211   52.4589 C.ar    1  ZINC000821177065   -0.1500
     20 C20        -7.7755    0.3851   53.8252 C.ar    1  ZINC000821177065   -0.0700
     21 C21        -6.8847    1.0815   54.6272 C.ar    1  ZINC000821177065   -0.1700
     22 C22        -6.0137    1.9814   54.0424 C.ar    1  ZINC000821177065    0.1000
     23 N23        -6.0207    2.1769   52.7385 N.ar    1  ZINC000821177065   -0.4700
     24 C24        -4.9094    3.2932   49.8464 C.2     1  ZINC000821177065    0.0700
     25 C25        -3.6217    3.1195   49.4715 C.2     1  ZINC000821177065   -0.2600
     26 H26        -0.0195    0.1500   48.1449 H       1  ZINC000821177065    0.4000
     27 H27        -0.5904   -0.1367   45.5017 H       1  ZINC000821177065    0.0700
     28 H28        -0.3061    1.6141   45.6504 H       1  ZINC000821177065    0.0800
     29 H29         1.3811   -0.9676   47.5401 H       1  ZINC000821177065    0.3800
     30 H30         2.7641   -0.2430   44.3779 H       1  ZINC000821177065    0.1100
     31 H31         1.0100    0.0080   42.5624 H       1  ZINC000821177065    0.0900
     32 H32        -0.1893    0.6466   43.8095 H       1  ZINC000821177065    0.1100
     33 H33         1.3790    2.5704   44.3327 H       1  ZINC000821177065    0.1000
     34 H34         2.5783    1.9318   43.0855 H       1  ZINC000821177065    0.0900
     35 H35         1.6797    2.4906   46.7572 H       1  ZINC000821177065    0.1100
     36 H36         2.8080    1.8556   48.9388 H       1  ZINC000821177065    0.1000
     37 H37         2.7596    0.0789   48.4467 H       1  ZINC000821177065    0.1100
     38 H38         4.1620    0.6076   46.4002 H       1  ZINC000821177065    0.0900
     39 H39         4.2104    2.3843   46.8923 H       1  ZINC000821177065    0.1000
     40 H40        -1.6193    0.6911   49.7563 H       1  ZINC000821177065    0.4100
     41 H41        -7.4554    2.6619   50.2343 H       1  ZINC000821177065    0.1000
     42 H42        -7.2043    0.9262   49.9302 H       1  ZINC000821177065    0.1200
     43 H43        -8.4373    0.0967   51.8041 H       1  ZINC000821177065    0.1400
     44 H44        -8.4679   -0.3241   54.2545 H       1  ZINC000821177065    0.1400
     45 H45        -6.8715    0.9230   55.6955 H       1  ZINC000821177065    0.1400
     46 H46        -5.3168    2.5283   54.6603 H       1  ZINC000821177065    0.1600
     47 H47        -5.4131    4.2402   49.9716 H       1  ZINC000821177065    0.1800
     48 H48        -2.9155    3.9034   49.2404 H       1  ZINC000821177065    0.1700
@<TRIPOS>BOND
     1     1     2    2
     2     2     3   am
     3     2    13   am
     4     3     4    1
     5     3    26    1
     6     4     5    1
     7     4    27    1
     8     4    28    1
     9     5     6    1
    10     5     7    1
    11     5    10    1
    12     6    29    1
    13     7     9    1
    14     7     8    1
    15     7    30    1
    16     8     9    1
    17     8    31    1
    18     8    32    1
    19     9    33    1
    20     9    34    1
    21    10    12    1
    22    10    11    1
    23    10    35    1
    24    11    12    1
    25    11    36    1
    26    11    37    1
    27    12    38    1
    28    12    39    1
    29    13    14    1
    30    13    40    1
    31    14    25    1
    32    14    15    2
    33    15    16    1
    34    16    17    1
    35    16    24    1
    36    17    18    1
    37    17    41    1
    38    17    42    1
    39    18    23   ar
    40    18    19   ar
    41    19    20   ar
    42    19    43    1
    43    20    21   ar
    44    20    44    1
    45    21    22   ar
    46    21    45    1
    47    22    23   ar
    48    22    46    1
    49    24    25    2
    50    24    47    1
    51    25    48    1
@<TRIPOS>SUBSTRUCTURE
     1 ZINC000821177065        1 TEMP              0 ****  ****    0 ROOT


##########                                Name:    ZINC000429196987
##########                DOCK_Rotatable_Bonds:                   7
##########                         Heavy_Atoms:                  28
##########                    Molecular_Weight:             403.505
##########                DOCK_Rotatable_Bonds:                   7
##########                       Formal_Charge:          -0.0399997
##########                     HBond_Acceptors:                   9
##########                        HBond_Donors:                   1
##########                         Heavy_Atoms:                  28
##########                          Grid_Score:          -33.888161
##########                     Grid_vdw_energy:          -33.936531
##########                      Grid_es_energy:            0.048369
##########           Internal_energy_repulsive:           11.845952

@<TRIPOS>MOLECULE
ZINC000429196987
 53 55 1 0 0
SMALL
USER_CHARGES


@<TRIPOS>ATOM
      1 C1        -11.9815   -1.1277   54.2638 C.3     1  ZINC000429196987    0.0800
      2 N2        -10.5315   -0.9893   54.4209 N.am    1  ZINC000429196987   -0.6300
      3 C3         -9.8535   -1.6248   55.5534 C.3     1  ZINC000429196987    0.1600
      4 C4        -10.8578   -1.9246   56.6363 C.ar    1  ZINC000429196987   -0.0600
      5 C5        -11.2384   -0.9320   57.5199 C.ar    1  ZINC000429196987   -0.1300
      6 C6        -12.1596   -1.2070   58.5132 C.ar    1  ZINC000429196987   -0.0300
      7 C7        -12.7005   -2.4744   58.6226 C.ar    1  ZINC000429196987   -0.6600
      8 S8        -13.8744   -2.8250   59.8890 S.o2    1  ZINC000429196987    2.5000
      9 C9        -15.1523   -1.5535   59.6864 C.3     1  ZINC000429196987   -0.6500
     10 O10       -14.3867   -4.1056   59.5472 O.2     1  ZINC000429196987   -0.9400
     11 O11       -13.1563   -2.6221   61.0983 O.2     1  ZINC000429196987   -0.9400
     12 C12       -12.3209   -3.4666   57.7381 C.ar    1  ZINC000429196987   -0.0300
     13 C13       -11.4026   -3.1906   56.7424 C.ar    1  ZINC000429196987   -0.1100
     14 C14        -9.8213   -0.2775   53.5235 C.2     1  ZINC000429196987    0.7100
     15 O15       -10.3842    0.2511   52.5843 O.2     1  ZINC000429196987   -0.5800
     16 N16        -8.4872   -0.1517   53.6670 N.am    1  ZINC000429196987   -0.7400
     17 C17        -7.7150    0.6206   52.6905 C.3     1  ZINC000429196987    0.1600
     18 C18        -6.5228    1.2815   53.3882 C.3     1  ZINC000429196987   -0.1300
     19 C19        -5.6863    2.0364   52.3526 C.3     1  ZINC000429196987    0.0700
     20 N20        -5.2167    1.0996   51.3239 N.3     1  ZINC000429196987   -0.4700
     21 C21        -4.3458    1.7264   50.4393 C.ar    1  ZINC000429196987    0.2500
     22 C22        -3.2065    1.0610   49.9883 C.ar    1  ZINC000429196987   -0.1300
     23 C23        -2.3708    1.7295   49.1076 C.ar    1  ZINC000429196987   -0.1000
     24 C24        -2.7188    3.0186   48.7291 C.ar    1  ZINC000429196987    0.0200
     25 N25        -3.8164    3.5719   49.2052 N.ar    1  ZINC000429196987   -0.2200
     26 N26        -4.5978    2.9568   50.0167 N.ar    1  ZINC000429196987   -0.2800
     27 C27        -6.3437    0.4881   50.6082 C.3     1  ZINC000429196987    0.0600
     28 C28        -7.1999   -0.3131   51.5917 C.3     1  ZINC000429196987   -0.1200
     29 H29       -12.4829   -0.3128   54.7861 H       1  ZINC000429196987    0.0600
     30 H30       -12.2373   -1.0922   53.2048 H       1  ZINC000429196987    0.0700
     31 H31       -12.3032   -2.0808   54.6836 H       1  ZINC000429196987    0.0800
     32 H32        -9.3871   -2.5531   55.2233 H       1  ZINC000429196987    0.1000
     33 H33        -9.0890   -0.9526   55.9429 H       1  ZINC000429196987    0.0900
     34 H34       -10.8158    0.0582   57.4344 H       1  ZINC000429196987    0.1300
     35 H35       -12.4566   -0.4317   59.2040 H       1  ZINC000429196987    0.1400
     36 H36       -15.5906   -1.6341   58.6916 H       1  ZINC000429196987    0.1300
     37 H37       -15.9286   -1.6956   60.4382 H       1  ZINC000429196987    0.1300
     38 H38       -14.7054   -0.5667   59.8077 H       1  ZINC000429196987    0.1300
     39 H39       -12.7438   -4.4568   57.8233 H       1  ZINC000429196987    0.1400
     40 H40       -11.1060   -3.9658   56.0514 H       1  ZINC000429196987    0.1400
     41 H41        -8.0382   -0.5724   54.4169 H       1  ZINC000429196987    0.4000
     42 H42        -8.3505    1.3879   52.2483 H       1  ZINC000429196987    0.0900
     43 H43        -6.8843    1.9798   54.1431 H       1  ZINC000429196987    0.0800
     44 H44        -5.9094    0.5162   53.8636 H       1  ZINC000429196987    0.0700
     45 H45        -6.2965    2.8106   51.8874 H       1  ZINC000429196987    0.0600
     46 H46        -4.8288    2.4962   52.8438 H       1  ZINC000429196987    0.0900
     47 H47        -2.9820    0.0565   50.3153 H       1  ZINC000429196987    0.1500
     48 H48        -1.4749    1.2613   48.7274 H       1  ZINC000429196987    0.1500
     49 H49        -2.0900    3.5686   48.0445 H       1  ZINC000429196987    0.1700
     50 H50        -6.9507    1.2696   50.1512 H       1  ZINC000429196987    0.0500
     51 H51        -5.9636   -0.1767   49.8325 H       1  ZINC000429196987    0.0900
     52 H52        -6.5971   -1.1035   52.0389 H       1  ZINC000429196987    0.0800
     53 H53        -8.0450   -0.7541   51.0631 H       1  ZINC000429196987    0.0800
@<TRIPOS>BOND
     1     1     2    1
     2     1    29    1
     3     1    30    1
     4     1    31    1
     5     2     3    1
     6     2    14   am
     7     3     4    1
     8     3    32    1
     9     3    33    1
    10     4    13   ar
    11     4     5   ar
    12     5     6   ar
    13     5    34    1
    14     6     7   ar
    15     6    35    1
    16     7     8    1
    17     7    12   ar
    18     8     9    1
    19     8    10    2
    20     8    11    2
    21     9    36    1
    22     9    37    1
    23     9    38    1
    24    12    13   ar
    25    12    39    1
    26    13    40    1
    27    14    15    2
    28    14    16   am
    29    16    17    1
    30    16    41    1
    31    17    28    1
    32    17    18    1
    33    17    42    1
    34    18    19    1
    35    18    43    1
    36    18    44    1
    37    19    20    1
    38    19    45    1
    39    19    46    1
    40    20    21    1
    41    20    27    1
    42    21    26   ar
    43    21    22   ar
    44    22    23   ar
    45    22    47    1
    46    23    24   ar
    47    23    48    1
    48    24    25   ar
    49    24    49    1
    50    25    26   ar
    51    27    28    1
    52    27    50    1
    53    27    51    1
    54    28    52    1
    55    28    53    1
@<TRIPOS>SUBSTRUCTURE
     1 ZINC000429196987        1 TEMP              0 ****  ****    0 ROOT


##########                                Name:    ZINC000912668252
##########                DOCK_Rotatable_Bonds:                  10
##########                         Heavy_Atoms:                  30
##########                    Molecular_Weight:             411.433
##########                DOCK_Rotatable_Bonds:                  10
##########                       Formal_Charge:           0.0199993
##########                     HBond_Acceptors:                   8
##########                        HBond_Donors:                   2
##########                         Heavy_Atoms:                  30
##########                          Grid_Score:          -33.880131
##########                     Grid_vdw_energy:          -32.089607
##########                      Grid_es_energy:           -1.790525
##########           Internal_energy_repulsive:           11.778326

@<TRIPOS>MOLECULE
ZINC000912668252
 52 54 1 0 0
SMALL
USER_CHARGES


@<TRIPOS>ATOM
      1 C1        -11.7260   -2.5951   60.3774 C.3     1  ZINC000912668252   -0.1700
      2 C2        -10.4211   -2.7422   59.5924 C.3     1  ZINC000912668252    0.1100
      3 N3        -10.5458   -2.0551   58.3046 N.am    1  ZINC000912668252   -0.6100
      4 C4        -10.3326   -0.6080   58.2227 C.3     1  ZINC000912668252    0.1000
      5 C5         -8.9956   -0.2518   58.8758 C.3     1  ZINC000912668252   -0.1800
      6 C6        -10.8568   -2.7542   57.1950 C.2     1  ZINC000912668252    0.5600
      7 O7        -11.0336   -3.9549   57.2630 O.2     1  ZINC000912668252   -0.5300
      8 C8        -10.9827   -2.0607   55.8953 C.ar    1  ZINC000912668252   -0.1100
      9 C9        -12.2406   -1.6855   55.4207 C.ar    1  ZINC000912668252   -0.1100
     10 C10       -12.3553   -1.0378   54.2073 C.ar    1  ZINC000912668252   -0.1000
     11 C11       -11.2276   -0.7584   53.4585 C.ar    1  ZINC000912668252   -0.1200
     12 C12        -9.9706   -1.1279   53.9223 C.ar    1  ZINC000912668252    0.1400
     13 N13        -8.8318   -0.8423   53.1604 N.am    1  ZINC000912668252   -0.6700
     14 C14        -8.0023    0.1518   53.5348 C.2     1  ZINC000912668252    0.5200
     15 O15        -8.2427    0.7989   54.5320 O.2     1  ZINC000912668252   -0.4900
     16 C16        -6.7762    0.4593   52.7144 C.3     1  ZINC000912668252    0.0500
     17 O17        -7.1759    0.8458   51.3730 O.3     1  ZINC000912668252   -0.3300
     18 C18        -6.4731    1.8357   50.7861 C.2     1  ZINC000912668252    0.5400
     19 O19        -7.0541    2.7338   50.2084 O.2     1  ZINC000912668252   -0.4800
     20 C20        -5.0053    1.8289   50.8449 C.2     1  ZINC000912668252    0.0400
     21 C21        -4.2360    2.7767   51.4436 C.2     1  ZINC000912668252   -0.0900
     22 C22        -2.8815    2.4006   51.2777 C.ar    1  ZINC000912668252   -0.1000
     23 C23        -1.6679    2.9777   51.6739 C.ar    1  ZINC000912668252   -0.0900
     24 C24        -0.4886    2.3638   51.3581 C.ar    1  ZINC000912668252    0.0700
     25 F25         0.6805    2.9220   51.7411 F       1  ZINC000912668252   -0.1400
     26 C26        -0.4817    1.1690   50.6461 C.ar    1  ZINC000912668252   -0.1100
     27 C27        -1.6623    0.5839   50.2459 C.ar    1  ZINC000912668252   -0.1000
     28 C28        -2.8760    1.1907   50.5560 C.ar    1  ZINC000912668252    0.1100
     29 N29        -4.1864    0.8552   50.3058 N.pl3   1  ZINC000912668252   -0.5600
     30 C30        -9.8442   -1.7740   55.1419 C.ar    1  ZINC000912668252   -0.0700
     31 H31       -11.6332   -3.1063   61.3357 H       1  ZINC000912668252    0.0700
     32 H32       -11.9302   -1.5380   60.5479 H       1  ZINC000912668252    0.0600
     33 H33       -12.5443   -3.0360   59.8081 H       1  ZINC000912668252    0.0600
     34 H34        -9.6029   -2.3012   60.1618 H       1  ZINC000912668252    0.0800
     35 H35       -10.2168   -3.7992   59.4220 H       1  ZINC000912668252    0.0900
     36 H36       -10.3192   -0.3013   57.1769 H       1  ZINC000912668252    0.0900
     37 H37       -11.1398   -0.0918   58.7424 H       1  ZINC000912668252    0.0800
     38 H38        -9.1238   -0.1920   59.9566 H       1  ZINC000912668252    0.0600
     39 H39        -8.2595   -1.0200   58.6391 H       1  ZINC000912668252    0.0700
     40 H40        -8.6512    0.7105   58.4971 H       1  ZINC000912668252    0.0700
     41 H41       -13.1241   -1.9023   56.0028 H       1  ZINC000912668252    0.1400
     42 H42       -13.3294   -0.7486   53.8417 H       1  ZINC000912668252    0.1400
     43 H43       -11.3237   -0.2517   52.5097 H       1  ZINC000912668252    0.1300
     44 H44        -8.6396   -1.3599   52.3628 H       1  ZINC000912668252    0.4200
     45 H45        -6.2239    1.2763   53.1785 H       1  ZINC000912668252    0.1100
     46 H46        -6.1417   -0.4256   52.6636 H       1  ZINC000912668252    0.1100
     47 H47        -4.5942    3.6586   51.9537 H       1  ZINC000912668252    0.1700
     48 H48        -1.6643    3.9052   52.2271 H       1  ZINC000912668252    0.1400
     49 H49         0.4585    0.6959   50.4043 H       1  ZINC000912668252    0.1400
     50 H50        -1.6466   -0.3435   49.6929 H       1  ZINC000912668252    0.1400
     51 H51        -4.4861    0.0660   49.8281 H       1  ZINC000912668252    0.4300
     52 H52        -8.8683   -2.0619   55.5040 H       1  ZINC000912668252    0.1400
@<TRIPOS>BOND
     1     1     2    1
     2     1    31    1
     3     1    32    1
     4     1    33    1
     5     2     3    1
     6     2    34    1
     7     2    35    1
     8     3     4    1
     9     3     6   am
    10     4     5    1
    11     4    36    1
    12     4    37    1
    13     5    38    1
    14     5    39    1
    15     5    40    1
    16     6     7    2
    17     6     8    1
    18     8    30   ar
    19     8     9   ar
    20     9    10   ar
    21     9    41    1
    22    10    11   ar
    23    10    42    1
    24    11    12   ar
    25    11    43    1
    26    12    13    1
    27    12    30   ar
    28    13    14   am
    29    13    44    1
    30    14    15    2
    31    14    16    1
    32    16    17    1
    33    16    45    1
    34    16    46    1
    35    17    18    1
    36    18    19    2
    37    18    20    1
    38    20    29    1
    39    20    21    2
    40    21    22    1
    41    21    47    1
    42    22    28   ar
    43    22    23   ar
    44    23    24   ar
    45    23    48    1
    46    24    25    1
    47    24    26   ar
    48    26    27   ar
    49    26    49    1
    50    27    28   ar
    51    27    50    1
    52    28    29    1
    53    29    51    1
    54    30    52    1
@<TRIPOS>SUBSTRUCTURE
     1 ZINC000912668252        1 TEMP              0 ****  ****    0 ROOT


##########                                Name:    ZINC000672622940
##########                DOCK_Rotatable_Bonds:                   7
##########                         Heavy_Atoms:                  30
##########                    Molecular_Weight:             416.523
##########                DOCK_Rotatable_Bonds:                   7
##########                       Formal_Charge:          -0.0100002
##########                     HBond_Acceptors:                   9
##########                        HBond_Donors:                   1
##########                         Heavy_Atoms:                  30
##########                          Grid_Score:          -33.863136
##########                     Grid_vdw_energy:          -33.098377
##########                      Grid_es_energy:           -0.764758
##########           Internal_energy_repulsive:           18.762291

@<TRIPOS>MOLECULE
ZINC000672622940
 62 65 1 0 0
SMALL
USER_CHARGES


@<TRIPOS>ATOM
      1 C1        -12.7650    1.2081   63.5874 C.3     1  ZINC000672622940    0.0800
      2 N2        -12.6650    0.1908   62.5380 N.am    1  ZINC000672622940   -0.6200
      3 C3        -11.3556   -0.1657   61.9859 C.3     1  ZINC000672622940    0.0700
      4 C4        -13.7775   -0.4170   62.0805 C.2     1  ZINC000672622940    0.5200
      5 O5        -14.8615   -0.1207   62.5365 O.2     1  ZINC000672622940   -0.5300
      6 C6        -13.6744   -1.4648   61.0023 C.3     1  ZINC000672622940   -0.1000
      7 H7        -12.7223   -1.9876   61.0934 H       1  ZINC000672622940    0.1000
      8 C8        -14.8220   -2.4655   61.1521 C.3     1  ZINC000672622940   -0.1300
      9 C9        -14.7174   -3.5292   60.0574 C.3     1  ZINC000672622940   -0.1100
     10 C10       -14.8015   -2.8585   58.6848 C.3     1  ZINC000672622940   -0.1300
     11 C11       -13.6538   -1.8578   58.5350 C.3     1  ZINC000672622940    0.1400
     12 H12       -12.7017   -2.3806   58.6262 H       1  ZINC000672622940    0.1000
     13 N13       -13.7344   -1.2155   57.2207 N.am    1  ZINC000672622940   -0.6900
     14 C14       -13.2389   -1.8401   56.1340 C.2     1  ZINC000672622940    0.5100
     15 O15       -12.7274   -2.9350   56.2439 O.2     1  ZINC000672622940   -0.5100
     16 C16       -13.3194   -1.1841   54.7936 C.2     1  ZINC000672622940    0.5100
     17 O17       -14.2762   -1.3870   54.0753 O.2     1  ZINC000672622940   -0.5200
     18 N18       -12.3294   -0.3671   54.3825 N.am    1  ZINC000672622940   -0.5800
     19 C19       -11.1618   -0.1165   55.2384 C.3     1  ZINC000672622940    0.0700
     20 C20        -9.8905   -0.4226   54.4402 C.3     1  ZINC000672622940   -0.1200
     21 C21        -9.9021    0.3853   53.1406 C.3     1  ZINC000672622940    0.0000
     22 C22        -8.6369    0.1127   52.3686 C.2     1  ZINC000672622940    0.2000
     23 N23        -8.0497   -1.0443   52.2289 N.2     1  ZINC000672622940   -0.2800
     24 N24        -6.9946   -0.9098   51.5067 N.2     1  ZINC000672622940   -0.2800
     25 C25        -6.8618    0.3409   51.1521 C.2     1  ZINC000672622940    0.1500
     26 C26        -5.9761    1.2817   50.3641 C.3     1  ZINC000672622940   -0.0400
     27 C27        -6.8489    2.5400   50.1537 C.3     1  ZINC000672622940   -0.1300
     28 C28        -7.8269    2.4493   51.3454 C.3     1  ZINC000672622940    0.1000
     29 N29        -7.9001    1.0230   51.6850 N.pl3   1  ZINC000672622940   -0.4900
     30 C30       -11.1122   -0.0209   52.2962 C.3     1  ZINC000672622940   -0.1200
     31 C31       -12.3943    0.2849   53.0675 C.3     1  ZINC000672622940    0.1100
     32 C32       -13.7584   -0.7941   59.6297 C.3     1  ZINC000672622940   -0.1100
     33 H33       -12.8934    2.1896   63.1310 H       1  ZINC000672622940    0.0600
     34 H34       -13.6213    0.9892   64.2253 H       1  ZINC000672622940    0.0800
     35 H35       -11.8546    1.2026   64.1868 H       1  ZINC000672622940    0.0700
     36 H36       -10.9273   -0.9833   62.5657 H       1  ZINC000672622940    0.0600
     37 H37       -11.4719   -0.4782   60.9481 H       1  ZINC000672622940    0.0800
     38 H38       -10.6937    0.6990   62.0331 H       1  ZINC000672622940    0.0700
     39 H39       -14.7621   -2.9433   62.1299 H       1  ZINC000672622940    0.0800
     40 H40       -15.7742   -1.9427   61.0609 H       1  ZINC000672622940    0.0700
     41 H41       -13.7653   -4.0520   60.1485 H       1  ZINC000672622940    0.0700
     42 H42       -15.5350   -4.2420   60.1641 H       1  ZINC000672622940    0.0700
     43 H43       -14.7269   -3.6163   57.9048 H       1  ZINC000672622940    0.0700
     44 H44       -15.7536   -2.3356   58.5936 H       1  ZINC000672622940    0.0700
     45 H45       -14.1442   -0.3409   57.1326 H       1  ZINC000672622940    0.4100
     46 H46       -11.1549    0.9279   55.5503 H       1  ZINC000672622940    0.0700
     47 H47       -11.2066   -0.7617   56.1158 H       1  ZINC000672622940    0.1400
     48 H48        -9.0158   -0.1496   55.0304 H       1  ZINC000672622940    0.0800
     49 H49        -9.8549   -1.4867   54.2068 H       1  ZINC000672622940    0.0800
     50 H50        -9.9630    1.4483   53.3742 H       1  ZINC000672622940    0.0900
     51 H51        -5.0807    1.5297   50.9342 H       1  ZINC000672622940    0.1000
     52 H52        -5.7079    0.8389   49.4049 H       1  ZINC000672622940    0.1000
     53 H53        -6.2465    3.4465   50.2117 H       1  ZINC000672622940    0.1100
     54 H54        -7.3841    2.4891   49.2054 H       1  ZINC000672622940    0.0900
     55 H55        -7.4457    3.0231   52.1902 H       1  ZINC000672622940    0.1000
     56 H56        -8.8113    2.8154   51.0537 H       1  ZINC000672622940    0.1000
     57 H57       -11.1070    0.5380   51.3603 H       1  ZINC000672622940    0.0800
     58 H58       -11.0650   -1.0888   52.0830 H       1  ZINC000672622940    0.0800
     59 H59       -13.2534   -0.0929   52.5129 H       1  ZINC000672622940    0.1000
     60 H60       -12.4903    1.3620   53.2046 H       1  ZINC000672622940    0.0800
     61 H61       -14.7106   -0.2712   59.5385 H       1  ZINC000672622940    0.0800
     62 H62       -12.9409   -0.0812   59.5229 H       1  ZINC000672622940    0.0800
@<TRIPOS>BOND
     1     1     2    1
     2     1    33    1
     3     1    34    1
     4     1    35    1
     5     2     3    1
     6     2     4   am
     7     3    36    1
     8     3    37    1
     9     3    38    1
    10     4     5    2
    11     4     6    1
    12     6     7    1
    13     6    32    1
    14     6     8    1
    15     8     9    1
    16     8    39    1
    17     8    40    1
    18     9    10    1
    19     9    41    1
    20     9    42    1
    21    10    11    1
    22    10    43    1
    23    10    44    1
    24    11    12    1
    25    11    13    1
    26    11    32    1
    27    13    14   am
    28    13    45    1
    29    14    15    2
    30    14    16    1
    31    16    17    2
    32    16    18   am
    33    18    31    1
    34    18    19    1
    35    19    20    1
    36    19    46    1
    37    19    47    1
    38    20    21    1
    39    20    48    1
    40    20    49    1
    41    21    22    1
    42    21    30    1
    43    21    50    1
    44    22    29    1
    45    22    23    2
    46    23    24    1
    47    24    25    2
    48    25    29    1
    49    25    26    1
    50    26    27    1
    51    26    51    1
    52    26    52    1
    53    27    28    1
    54    27    53    1
    55    27    54    1
    56    28    29    1
    57    28    55    1
    58    28    56    1
    59    30    31    1
    60    30    57    1
    61    30    58    1
    62    31    59    1
    63    31    60    1
    64    32    61    1
    65    32    62    1
@<TRIPOS>SUBSTRUCTURE
     1 ZINC000672622940        1 TEMP              0 ****  ****    0 ROOT


##########                                Name:    ZINC000981048968
##########                DOCK_Rotatable_Bonds:                   7
##########                         Heavy_Atoms:                  25
##########                    Molecular_Weight:             344.414
##########                DOCK_Rotatable_Bonds:                   7
##########                       Formal_Charge:                0.02
##########                     HBond_Acceptors:                   7
##########                        HBond_Donors:                   2
##########                         Heavy_Atoms:                  25
##########                          Grid_Score:          -33.862103
##########                     Grid_vdw_energy:          -33.190395
##########                      Grid_es_energy:           -0.671707
##########           Internal_energy_repulsive:            3.846521

@<TRIPOS>MOLECULE
ZINC000981048968
 49 52 1 0 0
SMALL
USER_CHARGES


@<TRIPOS>ATOM
      1 C1          1.9651   -0.0785   43.2319 C.3     1  ZINC000981048968   -0.0800
      2 C2          0.6127    0.2985   43.7797 C.2     1  ZINC000981048968   -0.0100
      3 C3          0.3955    0.9743   44.9183 C.2     1  ZINC000981048968   -0.1600
      4 C4         -1.0639    1.1059   45.0379 C.2     1  ZINC000981048968   -0.2300
      5 C5         -1.8128    1.7713   46.1189 C.2     1  ZINC000981048968    0.5900
      6 O6         -2.9760    2.0835   45.9500 O.2     1  ZINC000981048968   -0.5300
      7 N7         -1.2085    2.0339   47.2947 N.am    1  ZINC000981048968   -0.7300
      8 C8         -1.9524    2.6969   48.3685 C.3     1  ZINC000981048968    0.1500
      9 H9         -2.5751    3.4855   47.9461 H       1  ZINC000981048968    0.0900
     10 C10        -0.9685    3.3055   49.3700 C.3     1  ZINC000981048968   -0.1300
     11 C11        -1.7453    3.9979   50.4915 C.3     1  ZINC000981048968   -0.1200
     12 C12        -2.6319    2.9750   51.2048 C.3     1  ZINC000981048968   -0.1100
     13 C13        -3.6156    2.3664   50.2035 C.3     1  ZINC000981048968    0.1000
     14 H14        -4.2383    3.1550   49.7809 H       1  ZINC000981048968    0.0500
     15 N15        -4.4667    1.3843   50.8883 N.3     1  ZINC000981048968   -0.6800
     16 C16        -5.8743    1.8044   50.8707 C.3     1  ZINC000981048968    0.1500
     17 C17        -6.7463    0.6575   51.3126 C.2     1  ZINC000981048968    0.1800
     18 N18        -6.4585   -0.6064   51.2229 N.2     1  ZINC000981048968   -0.3800
     19 O19        -7.3674   -1.2764   51.6663 O.3     1  ZINC000981048968    0.0800
     20 C20        -8.3510   -0.4793   52.0940 C.2     1  ZINC000981048968    0.2100
     21 C21        -9.6546   -0.9148   52.7120 C.3     1  ZINC000981048968   -0.0800
     22 C22        -9.6469   -1.2709   54.2000 C.3     1  ZINC000981048968   -0.1600
     23 C23       -10.3046    0.0272   53.7274 C.3     1  ZINC000981048968   -0.1500
     24 N24        -7.9630    0.7545   51.8777 N.2     1  ZINC000981048968   -0.4600
     25 C25        -2.8388    1.6740   49.0819 C.3     1  ZINC000981048968   -0.1300
     26 C26        -1.5800    0.4842   43.9387 C.2     1  ZINC000981048968    0.0200
     27 O27        -0.5664    0.0169   43.2037 O.3     1  ZINC000981048968   -0.1700
     28 H28         1.8393   -0.6174   42.2928 H       1  ZINC000981048968    0.0800
     29 H29         2.5508    0.8240   43.0572 H       1  ZINC000981048968    0.0900
     30 H30         2.4832   -0.7149   43.9493 H       1  ZINC000981048968    0.0900
     31 H31         1.1404    1.3454   45.6066 H       1  ZINC000981048968    0.1600
     32 H32        -0.2811    1.7838   47.4299 H       1  ZINC000981048968    0.4000
     33 H33        -0.3458    2.5169   49.7925 H       1  ZINC000981048968    0.0700
     34 H34        -0.3371    4.0342   48.8618 H       1  ZINC000981048968    0.0700
     35 H35        -1.0445    4.4315   51.2050 H       1  ZINC000981048968    0.0700
     36 H36        -2.3682    4.7864   50.0690 H       1  ZINC000981048968    0.0600
     37 H37        -2.0091    2.1864   51.6273 H       1  ZINC000981048968    0.0700
     38 H38        -3.1853    3.4683   52.0038 H       1  ZINC000981048968    0.0700
     39 H39        -4.3581    0.4667   50.4829 H       1  ZINC000981048968    0.3500
     40 H40        -6.0104    2.6468   51.5489 H       1  ZINC000981048968    0.1100
     41 H41        -6.1516    2.1031   49.8598 H       1  ZINC000981048968    0.0600
     42 H42       -10.3158   -1.4866   52.0608 H       1  ZINC000981048968    0.1500
     43 H43       -10.3029   -2.0771   54.5280 H       1  ZINC000981048968    0.1200
     44 H44        -8.6989   -1.1902   54.7319 H       1  ZINC000981048968    0.1100
     45 H45        -9.7893    0.9619   53.9484 H       1  ZINC000981048968    0.1000
     46 H46       -11.3934    0.0748   53.7445 H       1  ZINC000981048968    0.1200
     47 H47        -3.5396    1.2405   48.3685 H       1  ZINC000981048968    0.0700
     48 H48        -2.2160    0.8855   49.5043 H       1  ZINC000981048968    0.0800
     49 H49        -2.6293    0.3891   43.7011 H       1  ZINC000981048968    0.2100
@<TRIPOS>BOND
     1     1     2    1
     2     1    28    1
     3     1    29    1
     4     1    30    1
     5     2    27    1
     6     2     3    2
     7     3     4    1
     8     3    31    1
     9     4     5    1
    10     4    26    2
    11     5     6    2
    12     5     7   am
    13     7     8    1
    14     7    32    1
    15     8     9    1
    16     8    25    1
    17     8    10    1
    18    10    11    1
    19    10    33    1
    20    10    34    1
    21    11    12    1
    22    11    35    1
    23    11    36    1
    24    12    13    1
    25    12    37    1
    26    12    38    1
    27    13    14    1
    28    13    15    1
    29    13    25    1
    30    15    16    1
    31    15    39    1
    32    16    17    1
    33    16    40    1
    34    16    41    1
    35    17    24    1
    36    17    18    2
    37    18    19    1
    38    19    20    1
    39    20    21    1
    40    20    24    2
    41    21    23    1
    42    21    22    1
    43    21    42    1
    44    22    23    1
    45    22    43    1
    46    22    44    1
    47    23    45    1
    48    23    46    1
    49    25    47    1
    50    25    48    1
    51    26    27    1
    52    26    49    1
@<TRIPOS>SUBSTRUCTURE
     1 ZINC000981048968        1 TEMP              0 ****  ****    0 ROOT


##########                                Name:    ZINC000409064708
##########                DOCK_Rotatable_Bonds:                   8
##########                         Heavy_Atoms:                  29
##########                    Molecular_Weight:             415.442
##########                DOCK_Rotatable_Bonds:                   8
##########                       Formal_Charge:                0.03
##########                     HBond_Acceptors:                   8
##########                        HBond_Donors:                   0
##########                         Heavy_Atoms:                  29
##########                          Grid_Score:          -33.856968
##########                     Grid_vdw_energy:          -33.421074
##########                      Grid_es_energy:           -0.435893
##########           Internal_energy_repulsive:           17.801220

@<TRIPOS>MOLECULE
ZINC000409064708
 47 49 1 0 0
SMALL
USER_CHARGES


@<TRIPOS>ATOM
      1 C1        -11.5289   -0.1970   52.7831 C.3     1  ZINC000409064708    0.0400
      2 O2        -10.3195    0.1046   53.5279 O.3     1  ZINC000409064708   -0.3500
      3 C3         -9.4896    1.0173   52.9987 C.2     1  ZINC000409064708    0.4600
      4 O4         -9.8363    1.6650   52.0395 O.2     1  ZINC000409064708   -0.4900
      5 C5         -8.1254    1.2342   53.6012 C.3     1  ZINC000409064708    0.1400
      6 H6         -8.0741    2.2332   54.0342 H       1  ZINC000409064708    0.1500
      7 C7         -7.8784    0.1916   54.6932 C.3     1  ZINC000409064708   -0.1600
      8 N8         -7.1045    1.1010   52.5588 N.am    1  ZINC000409064708   -0.5600
      9 C9         -7.0799    0.0174   51.7744 C.2     1  ZINC000409064708    0.5400
     10 O10        -7.8443   -0.9277   51.8202 O.2     1  ZINC000409064708   -0.4200
     11 S11        -5.7211    0.2227   50.6552 S.3     1  ZINC000409064708   -0.0100
     12 C12        -5.2349    1.7988   51.3107 C.2     1  ZINC000409064708   -0.2400
     13 C13        -4.2070    2.5888   50.9094 C.2     1  ZINC000409064708    0.0900
     14 C14        -3.3412    2.1614   49.8031 C.ar    1  ZINC000409064708   -0.1400
     15 C15        -2.1044    1.5614   50.0701 C.ar    1  ZINC000409064708    0.0000
     16 C16        -1.2966    1.1626   49.0291 C.ar    1  ZINC000409064708   -0.1600
     17 C17        -1.7066    1.3551   47.7147 C.ar    1  ZINC000409064708    0.1600
     18 O18        -0.9061    0.9599   46.6919 O.3     1  ZINC000409064708   -0.3000
     19 C19        -1.4746    0.9727   45.3809 C.3     1  ZINC000409064708    0.1000
     20 C20        -0.4453    0.5093   44.3824 C.ar    1  ZINC000409064708   -0.0700
     21 C21         0.8935    0.7797   44.5943 C.ar    1  ZINC000409064708   -0.1000
     22 C22         1.8390    0.3552   43.6791 C.ar    1  ZINC000409064708   -0.0900
     23 C23         1.4463   -0.3402   42.5515 C.ar    1  ZINC000409064708   -0.1400
     24 C24         0.1053   -0.6122   42.3384 C.ar    1  ZINC000409064708    0.1000
     25 F25        -0.2799   -1.2919   41.2361 F       1  ZINC000409064708   -0.1400
     26 C26        -0.8399   -0.1911   43.2580 C.ar    1  ZINC000409064708   -0.1300
     27 C27        -2.9333    1.9502   47.4438 C.ar    1  ZINC000409064708   -0.2200
     28 C28        -3.7518    2.3470   48.4772 C.ar    1  ZINC000409064708   -0.0400
     29 C29        -6.2039    2.0534   52.3829 C.2     1  ZINC000409064708    0.5600
     30 O30        -6.1765    3.0619   53.0636 O.2     1  ZINC000409064708   -0.4600
     31 H31       -12.1233    0.7101   52.6726 H       1  ZINC000409064708    0.0700
     32 H32       -11.2630   -0.5793   51.7976 H       1  ZINC000409064708    0.0700
     33 H33       -12.1085   -0.9479   53.3199 H       1  ZINC000409064708    0.1100
     34 H34        -8.6379    0.2908   55.4687 H       1  ZINC000409064708    0.1000
     35 H35        -7.9297   -0.8074   54.2601 H       1  ZINC000409064708    0.0800
     36 H36        -6.8917    0.3484   55.1289 H       1  ZINC000409064708    0.0800
     37 H37        -4.0257    3.5318   51.4037 H       1  ZINC000409064708    0.1600
     38 H38        -1.7846    1.4121   51.0908 H       1  ZINC000409064708    0.1300
     39 H39        -0.3426    0.6998   49.2338 H       1  ZINC000409064708    0.1400
     40 H40        -2.3356    0.3051   45.3517 H       1  ZINC000409064708    0.0800
     41 H41        -1.7915    1.9856   45.1323 H       1  ZINC000409064708    0.0800
     42 H42         1.2013    1.3235   45.4752 H       1  ZINC000409064708    0.1300
     43 H43         2.8847    0.5673   43.8454 H       1  ZINC000409064708    0.1400
     44 H44         2.1849   -0.6712   41.8363 H       1  ZINC000409064708    0.1400
     45 H45        -1.8860   -0.4030   43.0931 H       1  ZINC000409064708    0.1400
     46 H46        -3.2467    2.0975   46.4210 H       1  ZINC000409064708    0.1300
     47 H47        -4.7047    2.8092   48.2657 H       1  ZINC000409064708    0.1300
@<TRIPOS>BOND
     1     1     2    1
     2     1    31    1
     3     1    32    1
     4     1    33    1
     5     2     3    1
     6     3     4    2
     7     3     5    1
     8     5     6    1
     9     5     7    1
    10     5     8    1
    11     7    34    1
    12     7    35    1
    13     7    36    1
    14     8    29   am
    15     8     9   am
    16     9    10    2
    17     9    11    1
    18    11    12    1
    19    12    13    2
    20    12    29    1
    21    13    14    1
    22    13    37    1
    23    14    28   ar
    24    14    15   ar
    25    15    16   ar
    26    15    38    1
    27    16    17   ar
    28    16    39    1
    29    17    18    1
    30    17    27   ar
    31    18    19    1
    32    19    20    1
    33    19    40    1
    34    19    41    1
    35    20    26   ar
    36    20    21   ar
    37    21    22   ar
    38    21    42    1
    39    22    23   ar
    40    22    43    1
    41    23    24   ar
    42    23    44    1
    43    24    25    1
    44    24    26   ar
    45    26    45    1
    46    27    28   ar
    47    27    46    1
    48    28    47    1
    49    29    30    2
@<TRIPOS>SUBSTRUCTURE
     1 ZINC000409064708        1 TEMP              0 ****  ****    0 ROOT


##########                                Name:    ZINC000501032137
##########                DOCK_Rotatable_Bonds:                  10
##########                         Heavy_Atoms:                  25
##########                    Molecular_Weight:             407.307
##########                DOCK_Rotatable_Bonds:                  10
##########                       Formal_Charge:           0.0099998
##########                     HBond_Acceptors:                   5
##########                        HBond_Donors:                   1
##########                         Heavy_Atoms:                  25
##########                          Grid_Score:          -33.852436
##########                     Grid_vdw_energy:          -33.072693
##########                      Grid_es_energy:           -0.779743
##########           Internal_energy_repulsive:           12.992440

@<TRIPOS>MOLECULE
ZINC000501032137
 48 50 1 0 0
SMALL
USER_CHARGES


@<TRIPOS>ATOM
      1 C1         -9.4747    1.1780   62.0928 C.3     1  ZINC000501032137   -0.1500
      2 C2         -9.5969   -0.3363   62.2741 C.3     1  ZINC000501032137   -0.1200
      3 C3         -8.7755   -1.0469   61.1965 C.3     1  ZINC000501032137    0.0600
      4 O4         -9.6396   -1.4680   60.1392 O.3     1  ZINC000501032137   -0.3800
      5 C5         -9.7057   -0.5531   59.0434 C.3     1  ZINC000501032137    0.0500
      6 C6        -10.0911   -1.3093   57.7703 C.3     1  ZINC000501032137    0.1600
      7 H7         -9.2442   -1.9061   57.4317 H       1  ZINC000501032137    0.1000
      8 C8        -10.4779   -0.3082   56.6799 C.3     1  ZINC000501032137   -0.0900
      9 C9         -9.2579    0.0497   55.8708 C.ar    1  ZINC000501032137   -0.0600
     10 C10        -8.3136    0.9150   56.3905 C.ar    1  ZINC000501032137   -0.0900
     11 C11        -7.1940    1.2437   55.6486 C.ar    1  ZINC000501032137   -0.1100
     12 C12        -7.0188    0.7072   54.3872 C.ar    1  ZINC000501032137   -0.0900
     13 C13        -7.9637   -0.1589   53.8667 C.ar    1  ZINC000501032137   -0.0800
     14 Br14       -7.7244   -0.8934   52.1406 Br      1  ZINC000501032137   -0.0600
     15 C15        -9.0806   -0.4919   54.6114 C.ar    1  ZINC000501032137   -0.0800
     16 N16       -11.2280   -2.1896   58.0504 N.am    1  ZINC000501032137   -0.7100
     17 C17       -11.5990   -3.1192   57.1478 C.2     1  ZINC000501032137    0.6100
     18 O18       -10.9890   -3.2281   56.1014 O.2     1  ZINC000501032137   -0.5200
     19 C19       -12.7441   -4.0039   57.4289 C.2     1  ZINC000501032137   -0.0800
     20 C20       -13.8902   -3.6615   58.0780 C.2     1  ZINC000501032137    0.0800
     21 C21       -14.2291   -2.3072   58.6456 C.3     1  ZINC000501032137   -0.0800
     22 C22       -15.7099   -1.9683   58.8284 C.3     1  ZINC000501032137   -0.1700
     23 C23       -14.8357   -2.2612   60.0495 C.3     1  ZINC000501032137   -0.1500
     24 O24       -14.6616   -4.7596   58.1161 O.3     1  ZINC000501032137   -0.2000
     25 C25       -14.0045   -5.7550   57.5042 C.2     1  ZINC000501032137    0.1800
     26 N26       -12.8567   -5.3151   57.0831 N.2     1  ZINC000501032137   -0.4600
     27 H27        -8.4286    1.4712   62.1811 H       1  ZINC000501032137    0.0600
     28 H28        -9.8485    1.4574   61.1078 H       1  ZINC000501032137    0.0600
     29 H29       -10.0599    1.6843   62.8605 H       1  ZINC000501032137    0.0600
     30 H30        -9.2232   -0.6156   63.2591 H       1  ZINC000501032137    0.0700
     31 H31       -10.6431   -0.6295   62.1858 H       1  ZINC000501032137    0.0700
     32 H32        -8.0248   -0.3624   60.8015 H       1  ZINC000501032137    0.0500
     33 H33        -8.2819   -1.9165   61.6304 H       1  ZINC000501032137    0.0500
     34 H34       -10.4541    0.2111   59.2526 H       1  ZINC000501032137    0.0700
     35 H35        -8.7330   -0.0809   58.9051 H       1  ZINC000501032137    0.0600
     36 H36       -11.2287   -0.7537   56.0273 H       1  ZINC000501032137    0.0900
     37 H37       -10.8850    0.5918   57.1407 H       1  ZINC000501032137    0.0800
     38 H38        -8.4504    1.3347   57.3761 H       1  ZINC000501032137    0.1200
     39 H39        -6.4566    1.9201   56.0550 H       1  ZINC000501032137    0.1300
     40 H40        -6.1443    0.9642   53.8077 H       1  ZINC000501032137    0.1300
     41 H41        -9.8183   -1.1683   54.2056 H       1  ZINC000501032137    0.1200
     42 H42       -11.7138   -2.1036   58.8856 H       1  ZINC000501032137    0.4100
     43 H43       -13.5585   -1.4967   58.3604 H       1  ZINC000501032137    0.1500
     44 H44       -16.0136   -0.9346   58.6633 H       1  ZINC000501032137    0.1100
     45 H45       -16.4389   -2.7248   58.5383 H       1  ZINC000501032137    0.1000
     46 H46       -14.9896   -3.2105   60.5626 H       1  ZINC000501032137    0.1000
     47 H47       -14.5644   -1.4202   60.6877 H       1  ZINC000501032137    0.1100
     48 H48       -14.3726   -6.7625   57.3779 H       1  ZINC000501032137    0.2500
@<TRIPOS>BOND
     1     1     2    1
     2     1    27    1
     3     1    28    1
     4     1    29    1
     5     2     3    1
     6     2    30    1
     7     2    31    1
     8     3     4    1
     9     3    32    1
    10     3    33    1
    11     4     5    1
    12     5     6    1
    13     5    34    1
    14     5    35    1
    15     6     7    1
    16     6     8    1
    17     6    16    1
    18     8     9    1
    19     8    36    1
    20     8    37    1
    21     9    15   ar
    22     9    10   ar
    23    10    11   ar
    24    10    38    1
    25    11    12   ar
    26    11    39    1
    27    12    13   ar
    28    12    40    1
    29    13    14    1
    30    13    15   ar
    31    15    41    1
    32    16    17   am
    33    16    42    1
    34    17    18    2
    35    17    19    1
    36    19    26    1
    37    19    20    2
    38    20    21    1
    39    20    24    1
    40    21    23    1
    41    21    22    1
    42    21    43    1
    43    22    23    1
    44    22    44    1
    45    22    45    1
    46    23    46    1
    47    23    47    1
    48    24    25    1
    49    25    26    2
    50    25    48    1
@<TRIPOS>SUBSTRUCTURE
     1 ZINC000501032137        1 TEMP              0 ****  ****    0 ROOT


##########                                Name:     oleObject17.pdb
##########                DOCK_Rotatable_Bonds:                   8
##########                         Heavy_Atoms:                  29
##########                    Molecular_Weight:             435.393
##########                DOCK_Rotatable_Bonds:                   8
##########                       Formal_Charge:         0.000400059
##########                     HBond_Acceptors:                   6
##########                        HBond_Donors:                   0
##########                         Heavy_Atoms:                  29
##########                          Grid_Score:          -33.820839
##########                     Grid_vdw_energy:          -33.483425
##########                      Grid_es_energy:           -0.337415
##########           Internal_energy_repulsive:           19.746492

@<TRIPOS>MOLECULE
oleObject17.pdb
 57 59 1 0 0
SMALL
NO_CHARGES


@<TRIPOS>ATOM
      1 C          -7.3187    2.0945   51.5744 C.3     1  UNL         0.0391
      2 C          -5.8397    2.4828   51.6302 C.ar    1  UNL        -0.0277
      3 C          -5.0446    2.6469   50.4679 C.ar    1  UNL        -0.0463
      4 C          -3.6808    2.9739   50.6025 C.ar    1  UNL        -0.0590
      5 C          -3.1048    3.1416   51.8701 C.ar    1  UNL        -0.0620
      6 C          -3.8933    2.9972   53.0191 C.ar    1  UNL        -0.0619
      7 C          -5.2531    2.6754   52.8966 C.ar    1  UNL        -0.0572
      8 C          -5.6170    2.4878   49.0636 C.3     1  UNL        -0.0394
      9 N          -7.5292    0.6331   51.6561 N.am    1  UNL        -0.3003
     10 C          -8.7227    0.1047   52.1475 C.2     1  UNL         0.2175
     11 O          -8.7707   -1.0615   52.5001 O.2     1  UNL        -0.2772
     12 C          -9.8020    1.1246   52.5975 C.3     1  UNL         0.0384
     13 C          -9.6076    1.5946   54.0613 C.3     1  UNL        -0.0289
     14 C          -9.9095    0.4615   55.0613 C.3     1  UNL        -0.0010
     15 N         -11.2792   -0.0710   54.8913 N.4     1  UNL        -0.3010
     16 C         -11.6065   -0.4937   53.5094 C.3     1  UNL        -0.0010
     17 C         -11.2489    0.5798   52.4492 C.3     1  UNL        -0.0289
     18 C         -11.6547   -1.0640   55.9238 C.3     1  UNL         0.0222
     19 C         -10.5201   -2.0551   56.2723 C.3     1  UNL         0.0661
     20 O         -11.0981   -3.1886   56.9414 O.3     1  UNL        -0.3432
     21 C         -11.8668   -3.0725   58.0838 C.ar    1  UNL         0.0937
     22 C         -11.5417   -2.1625   59.1130 C.ar    1  UNL        -0.0288
     23 C         -12.3530   -2.0679   60.2556 C.ar    1  UNL        -0.0408
     24 C         -13.4901   -2.8815   60.3794 C.ar    1  UNL         0.0422
     25 C         -13.8180   -3.7917   59.3625 C.ar    1  UNL        -0.0221
     26 C         -13.0088   -3.8879   58.2180 C.ar    1  UNL         0.0723
     27 CL        -13.4497   -5.0311   56.9633 Cl      1  UNL        -0.0814
     28 CL        -14.4998   -2.7608   61.8044 Cl      1  UNL        -0.0843
     29 C          -6.4099   -0.2109   51.1996 C.3     1  UNL         0.0031
     30 H          -7.7883    2.4581   50.6537 H       1  UNL         0.0520
     31 H          -7.8360    2.5891   52.4061 H       1  UNL         0.0520
     32 H          -3.0599    3.0988   49.7199 H       1  UNL         0.0626
     33 H          -2.0510    3.3900   51.9605 H       1  UNL         0.0623
     34 H          -3.4522    3.1321   54.0024 H       1  UNL         0.0623
     35 H          -5.8536    2.5615   53.7943 H       1  UNL         0.0626
     36 H          -6.4904    3.1347   48.9159 H       1  UNL         0.0280
     37 H          -5.9218    1.4525   48.8733 H       1  UNL         0.0280
     38 H          -4.8834    2.7576   48.2940 H       1  UNL         0.0280
     39 H          -9.7141    1.9986   51.9413 H       1  UNL         0.0402
     40 H         -10.2842    2.4351   54.2636 H       1  UNL         0.0288
     41 H          -8.5927    1.9713   54.2257 H       1  UNL         0.0288
     42 H          -9.7812    0.8444   56.0819 H       1  UNL         0.0431
     43 H          -9.1751   -0.3376   54.9096 H       1  UNL         0.0431
     44 H         -12.6789   -0.7155   53.4368 H       1  UNL         0.0431
     45 H         -11.0709   -1.4189   53.2689 H       1  UNL         0.0431
     46 H         -11.9521    1.4161   52.5537 H       1  UNL         0.0288
     47 H         -11.3985    0.1722   51.4411 H       1  UNL         0.0288
     48 H         -12.5284   -1.6343   55.5831 H       1  UNL         0.0455
     49 H         -11.9496   -0.5369   56.8402 H       1  UNL         0.0455
     50 H          -9.7926   -1.5726   56.9349 H       1  UNL         0.0586
     51 H         -10.0083   -2.3772   55.3574 H       1  UNL         0.0586
     52 H         -10.6656   -1.5263   59.0404 H       1  UNL         0.0651
     53 H         -12.0984   -1.3650   61.0440 H       1  UNL         0.0639
     54 H         -14.6980   -4.4211   59.4598 H       1  UNL         0.0655
     55 H          -5.4518    0.2705   51.4328 H       1  UNL         0.0433
     56 H          -6.4738   -0.3681   50.1161 H       1  UNL         0.0433
     57 H          -6.4354   -1.1823   51.7086 H       1  UNL         0.0433
@<TRIPOS>BOND
     1     1     2    1
     2     1     9    1
     3     1    30    1
     4     1    31    1
     5     2     3   ar
     6     2     7   ar
     7     3     4   ar
     8     3     8    1
     9     4     5   ar
    10     4    32    1
    11     5     6   ar
    12     5    33    1
    13     6     7   ar
    14     6    34    1
    15     7    35    1
    16     8    36    1
    17     8    37    1
    18     8    38    1
    19     9    10   am
    20     9    29    1
    21    10    11    2
    22    10    12    1
    23    12    13    1
    24    12    17    1
    25    12    39    1
    26    13    14    1
    27    13    40    1
    28    13    41    1
    29    14    15    1
    30    14    42    1
    31    14    43    1
    32    15    16    1
    33    15    18    1
    34    16    17    1
    35    16    44    1
    36    16    45    1
    37    17    46    1
    38    17    47    1
    39    18    19    1
    40    18    48    1
    41    18    49    1
    42    19    20    1
    43    19    50    1
    44    19    51    1
    45    20    21    1
    46    21    22   ar
    47    21    26   ar
    48    22    23   ar
    49    22    52    1
    50    23    24   ar
    51    23    53    1
    52    24    25   ar
    53    24    28    1
    54    25    26   ar
    55    25    54    1
    56    26    27    1
    57    29    55    1
    58    29    56    1
    59    29    57    1
@<TRIPOS>SUBSTRUCTURE
     1 UNL         1 TEMP              0 ****  ****    0 ROOT


##########                                Name:    ZINC000980108339
##########                DOCK_Rotatable_Bonds:                   9
##########                         Heavy_Atoms:                  25
##########                    Molecular_Weight:             348.445
##########                DOCK_Rotatable_Bonds:                   9
##########                       Formal_Charge:          -0.0100001
##########                     HBond_Acceptors:                   7
##########                        HBond_Donors:                   3
##########                         Heavy_Atoms:                  25
##########                          Grid_Score:          -33.795593
##########                     Grid_vdw_energy:          -31.443996
##########                      Grid_es_energy:           -2.351595
##########           Internal_energy_repulsive:           10.261746

@<TRIPOS>MOLECULE
ZINC000980108339
 53 56 1 0 0
SMALL
USER_CHARGES


@<TRIPOS>ATOM
      1 C1         -8.9387   -0.0862   53.7329 C.3     1  ZINC000980108339    0.1200
      2 N2         -8.1250    0.4511   52.6395 N.am    1  ZINC000980108339   -0.6400
      3 C3         -7.9042    1.8786   52.3638 C.3     1  ZINC000980108339    0.1100
      4 C4         -6.9889    1.8779   51.1239 C.3     1  ZINC000980108339    0.1000
      5 H5         -7.4786    2.3748   50.2865 H       1  ZINC000980108339    0.1200
      6 C6         -5.6739    2.5441   51.4370 C.2     1  ZINC000980108339    0.5000
      7 O7         -5.6437    3.5146   52.1637 O.2     1  ZINC000980108339   -0.5200
      8 N8         -4.5315    2.0615   50.9094 N.am    1  ZINC000980108339   -0.7200
      9 C9         -3.2534    2.7101   51.2123 C.3     1  ZINC000980108339    0.1300
     10 C10        -2.2110    2.2937   50.1726 C.3     1  ZINC000980108339   -0.1200
     11 H11        -1.5883    1.4637   50.5065 H       1  ZINC000980108339    0.1000
     12 C12        -2.7913    2.0997   48.7618 C.3     1  ZINC000980108339   -0.1400
     13 C13        -1.5163    2.7752   48.2299 C.3     1  ZINC000980108339    0.1200
     14 H14        -1.6981    3.4606   47.4021 H       1  ZINC000980108339    0.1100
     15 N15        -0.4233    1.8371   47.9621 N.am    1  ZINC000980108339   -0.7200
     16 C16         0.7737    2.2975   47.5481 C.2     1  ZINC000980108339    0.5200
     17 O17         0.9466    3.4887   47.3985 O.2     1  ZINC000980108339   -0.5300
     18 C18         1.8976    1.3324   47.2709 C.3     1  ZINC000980108339   -0.1100
     19 C19         1.5184    0.4328   46.0929 C.3     1  ZINC000980108339   -0.1300
     20 H20         1.2767   -0.5990   46.3480 H       1  ZINC000980108339    0.1200
     21 C21         2.2213    0.6841   44.7573 C.3     1  ZINC000980108339   -0.1700
     22 C22         0.7511    1.0723   44.9340 C.3     1  ZINC000980108339   -0.1200
     23 H23         0.5167    2.1340   45.0106 H       1  ZINC000980108339    0.1000
     24 C24        -0.2964    0.2149   44.2210 C.3     1  ZINC000980108339   -0.1300
     25 C25        -1.2079   -0.6543   45.0898 C.3     1  ZINC000980108339   -0.1800
     26 C26        -1.7665    0.5957   44.4069 C.3     1  ZINC000980108339   -0.1800
     27 C27        -1.4087    3.4731   49.5978 C.3     1  ZINC000980108339   -0.1400
     28 N28        -6.7912    0.4501   50.8328 N.am    1  ZINC000980108339   -0.7200
     29 C29        -7.4593   -0.2798   51.7358 C.2     1  ZINC000980108339    0.7000
     30 O30        -7.4680   -1.4956   51.7300 O.2     1  ZINC000980108339   -0.5800
     31 H31        -8.9200   -1.1755   53.6983 H       1  ZINC000980108339    0.0900
     32 H32        -8.5357    0.2540   54.6868 H       1  ZINC000980108339    0.0600
     33 H33        -9.9658    0.2631   53.6270 H       1  ZINC000980108339    0.0600
     34 H34        -8.8485    2.3759   52.1419 H       1  ZINC000980108339    0.1000
     35 H35        -7.4066    2.3586   53.2064 H       1  ZINC000980108339    0.0900
     36 H36        -4.5555    1.2845   50.3291 H       1  ZINC000980108339    0.4000
     37 H37        -3.3801    3.7924   51.1863 H       1  ZINC000980108339    0.0700
     38 H38        -2.9183    2.4072   52.2042 H       1  ZINC000980108339    0.0700
     39 H39        -2.8864    1.0542   48.4686 H       1  ZINC000980108339    0.0800
     40 H40        -3.6988    2.6756   48.5800 H       1  ZINC000980108339    0.1000
     41 H41        -0.5612    0.8845   48.0829 H       1  ZINC000980108339    0.4000
     42 H42         2.8024    1.8889   47.0266 H       1  ZINC000980108339    0.1000
     43 H43         2.0757    0.7189   48.1541 H       1  ZINC000980108339    0.1000
     44 H44         2.9537    1.4904   44.7179 H       1  ZINC000980108339    0.0900
     45 H45         2.4416   -0.1823   44.1337 H       1  ZINC000980108339    0.1000
     46 H46         0.0020   -0.1816   43.2505 H       1  ZINC000980108339    0.1000
     47 H47        -1.5094   -1.6229   44.6908 H       1  ZINC000980108339    0.0900
     48 H48        -1.0613   -0.6152   46.1690 H       1  ZINC000980108339    0.0900
     49 H49        -1.9874    1.4573   45.0371 H       1  ZINC000980108339    0.0900
     50 H50        -2.4354    0.4496   43.5588 H       1  ZINC000980108339    0.0900
     51 H51        -1.9382    4.4247   49.6453 H       1  ZINC000980108339    0.1000
     52 H52        -0.3889    3.5355   49.9772 H       1  ZINC000980108339    0.0800
     53 H53        -6.2582    0.0934   50.1052 H       1  ZINC000980108339    0.4400
@<TRIPOS>BOND
     1     1     2    1
     2     1    31    1
     3     1    32    1
     4     1    33    1
     5     2    29   am
     6     2     3    1
     7     3     4    1
     8     3    34    1
     9     3    35    1
    10     4     5    1
    11     4     6    1
    12     4    28    1
    13     6     7    2
    14     6     8   am
    15     8     9    1
    16     8    36    1
    17     9    10    1
    18     9    37    1
    19     9    38    1
    20    10    11    1
    21    10    27    1
    22    10    12    1
    23    12    13    1
    24    12    39    1
    25    12    40    1
    26    13    14    1
    27    13    15    1
    28    13    27    1
    29    15    16   am
    30    15    41    1
    31    16    17    2
    32    16    18    1
    33    18    19    1
    34    18    42    1
    35    18    43    1
    36    19    20    1
    37    19    22    1
    38    19    21    1
    39    21    22    1
    40    21    44    1
    41    21    45    1
    42    22    23    1
    43    22    24    1
    44    24    26    1
    45    24    25    1
    46    24    46    1
    47    25    26    1
    48    25    47    1
    49    25    48    1
    50    26    49    1
    51    26    50    1
    52    27    51    1
    53    27    52    1
    54    28    29   am
    55    28    53    1
    56    29    30    2
@<TRIPOS>SUBSTRUCTURE
     1 ZINC000980108339        1 TEMP              0 ****  ****    0 ROOT


##########                                Name:    ZINC000767361237
##########                DOCK_Rotatable_Bonds:                  10
##########                         Heavy_Atoms:                  30
##########                    Molecular_Weight:             409.439
##########                DOCK_Rotatable_Bonds:                  10
##########                       Formal_Charge:          -0.0300005
##########                     HBond_Acceptors:                   7
##########                        HBond_Donors:                   1
##########                         Heavy_Atoms:                  30
##########                          Grid_Score:          -33.691696
##########                     Grid_vdw_energy:          -33.138329
##########                      Grid_es_energy:           -0.553367
##########           Internal_energy_repulsive:           14.644339

@<TRIPOS>MOLECULE
ZINC000767361237
 53 55 1 0 0
SMALL
USER_CHARGES


@<TRIPOS>ATOM
      1 C1         -6.3237    3.0158   49.9223 C.3     1  ZINC000767361237   -0.1200
      2 C2         -7.1048    2.3492   51.0254 C.ar    1  ZINC000767361237   -0.0900
      3 C3         -6.4562    1.5424   51.9414 C.ar    1  ZINC000767361237   -0.1200
      4 C4         -7.1726    0.9309   52.9532 C.ar    1  ZINC000767361237   -0.1100
      5 C5         -8.5377    1.1266   53.0491 C.ar    1  ZINC000767361237   -0.0800
      6 C6         -9.3188    0.4596   54.1518 C.3     1  ZINC000767361237   -0.0800
      7 H7        -10.2180    1.0387   54.3617 H       1  ZINC000767361237    0.0900
      8 C8         -8.4561    0.3823   55.4130 C.3     1  ZINC000767361237   -0.1500
      9 C9         -9.7122   -0.9531   53.7157 C.3     1  ZINC000767361237    0.1300
     10 H10        -8.8360   -1.6008   53.7485 H       1  ZINC000767361237    0.1400
     11 O11       -10.2262   -0.9144   52.3830 O.3     1  ZINC000767361237   -0.5200
     12 C12       -10.7690   -1.4901   54.6463 C.2     1  ZINC000767361237    0.4300
     13 O13       -11.9350   -1.2509   54.4385 O.2     1  ZINC000767361237   -0.5000
     14 O14       -10.4149   -2.2342   55.7059 O.3     1  ZINC000767361237   -0.3300
     15 C15       -11.4860   -2.8689   56.4531 C.3     1  ZINC000767361237    0.0100
     16 C16       -10.9061   -3.6136   57.6279 C.2     1  ZINC000767361237    0.3700
     17 O17       -10.3971   -4.6965   57.4648 O.2     1  ZINC000767361237   -0.4200
     18 C18       -10.9613   -3.0068   59.0063 C.3     1  ZINC000767361237   -0.1800
     19 C19       -10.5256   -1.5418   58.9364 C.3     1  ZINC000767361237    0.1200
     20 N20       -10.2615   -1.0459   60.2894 N.am    1  ZINC000767361237   -0.5800
     21 C21        -9.0695   -1.1210   60.9084 C.2     1  ZINC000767361237    0.5700
     22 O22        -8.0574   -1.6032   60.4414 O.2     1  ZINC000767361237   -0.4600
     23 C23        -9.1975   -0.5176   62.2517 C.ar    1  ZINC000767361237   -0.1400
     24 C24        -8.3257   -0.3175   63.3095 C.ar    1  ZINC000767361237   -0.0400
     25 C25        -8.7786    0.2985   64.4663 C.ar    1  ZINC000767361237   -0.0900
     26 C26       -10.0926    0.7134   64.5706 C.ar    1  ZINC000767361237   -0.0900
     27 C27       -10.9764    0.5197   63.5200 C.ar    1  ZINC000767361237   -0.0400
     28 C28       -10.5381   -0.0943   62.3581 C.ar    1  ZINC000767361237   -0.1400
     29 C29       -11.1776   -0.4503   61.0740 C.2     1  ZINC000767361237    0.5700
     30 O30       -12.3368   -0.2417   60.7775 O.2     1  ZINC000767361237   -0.4600
     31 C31        -9.1861    1.9345   52.1339 C.ar    1  ZINC000767361237   -0.1100
     32 C32        -8.4690    2.5491   51.1244 C.ar    1  ZINC000767361237   -0.1200
     33 H33        -5.9723    3.9896   50.2633 H       1  ZINC000767361237    0.0700
     34 H34        -5.4690    2.3942   49.6554 H       1  ZINC000767361237    0.0700
     35 H35        -6.9649    3.1458   49.0505 H       1  ZINC000767361237    0.0700
     36 H36        -5.3896    1.3896   51.8664 H       1  ZINC000767361237    0.1200
     37 H37        -6.6659    0.3000   53.6685 H       1  ZINC000767361237    0.1200
     38 H38        -9.0211   -0.1001   56.2107 H       1  ZINC000767361237    0.0800
     39 H39        -7.5568   -0.1969   55.2032 H       1  ZINC000767361237    0.0700
     40 H40        -8.1758    1.3888   55.7238 H       1  ZINC000767361237    0.0600
     41 H41       -10.5032   -1.7763   52.0430 H       1  ZINC000767361237    0.3900
     42 H42       -12.1794   -2.1081   56.8115 H       1  ZINC000767361237    0.1100
     43 H43       -12.0160   -3.5676   55.8058 H       1  ZINC000767361237    0.1100
     44 H44       -11.9805   -3.0649   59.3882 H       1  ZINC000767361237    0.1100
     45 H45       -10.2925   -3.5535   59.6710 H       1  ZINC000767361237    0.1100
     46 H46        -9.6193   -1.4605   58.3363 H       1  ZINC000767361237    0.1100
     47 H47       -11.3179   -0.9484   58.4801 H       1  ZINC000767361237    0.1100
     48 H48        -7.2979   -0.6400   63.2336 H       1  ZINC000767361237    0.1400
     49 H49        -8.0998    0.4546   65.2916 H       1  ZINC000767361237    0.1400
     50 H50       -10.4335    1.1917   65.4769 H       1  ZINC000767361237    0.1400
     51 H51       -12.0021    0.8464   63.6070 H       1  ZINC000767361237    0.1400
     52 H52       -10.2525    2.0877   52.2091 H       1  ZINC000767361237    0.1200
     53 H53        -8.9756    3.1802   50.4093 H       1  ZINC000767361237    0.1200
@<TRIPOS>BOND
     1     1     2    1
     2     1    33    1
     3     1    34    1
     4     1    35    1
     5     2    32   ar
     6     2     3   ar
     7     3     4   ar
     8     3    36    1
     9     4     5   ar
    10     4    37    1
    11     5     6    1
    12     5    31   ar
    13     6     7    1
    14     6     8    1
    15     6     9    1
    16     8    38    1
    17     8    39    1
    18     8    40    1
    19     9    10    1
    20     9    11    1
    21     9    12    1
    22    11    41    1
    23    12    13    2
    24    12    14    1
    25    14    15    1
    26    15    16    1
    27    15    42    1
    28    15    43    1
    29    16    17    2
    30    16    18    1
    31    18    19    1
    32    18    44    1
    33    18    45    1
    34    19    20    1
    35    19    46    1
    36    19    47    1
    37    20    29   am
    38    20    21   am
    39    21    22    2
    40    21    23    1
    41    23    28   ar
    42    23    24   ar
    43    24    25   ar
    44    24    48    1
    45    25    26   ar
    46    25    49    1
    47    26    27   ar
    48    26    50    1
    49    27    28   ar
    50    27    51    1
    51    28    29    1
    52    29    30    2
    53    31    32   ar
    54    31    52    1
    55    32    53    1
@<TRIPOS>SUBSTRUCTURE
     1 ZINC000767361237        1 TEMP              0 ****  ****    0 ROOT


##########                                Name:    ZINC000893400114
##########                DOCK_Rotatable_Bonds:                   6
##########                         Heavy_Atoms:                  27
##########                    Molecular_Weight:             381.472
##########                DOCK_Rotatable_Bonds:                   6
##########                       Formal_Charge:           0.0300001
##########                     HBond_Acceptors:                   8
##########                        HBond_Donors:                   1
##########                         Heavy_Atoms:                  27
##########                          Grid_Score:          -33.686565
##########                     Grid_vdw_energy:          -33.796844
##########                      Grid_es_energy:            0.110277
##########           Internal_energy_repulsive:           78.936073

@<TRIPOS>MOLECULE
ZINC000893400114
 58 61 1 0 0
SMALL
USER_CHARGES


@<TRIPOS>ATOM
      1 O1         -4.4967    2.2040   48.4533 O.2     1  ZINC000893400114   -0.5600
      2 C2         -4.2463    2.8060   49.4796 C.2     1  ZINC000893400114    0.7100
      3 N3         -5.1927    2.9409   50.4296 N.am    1  ZINC000893400114   -0.7300
      4 C4         -6.5249    2.3673   50.2233 C.3     1  ZINC000893400114    0.1400
      5 H5         -6.6631    2.0925   49.1776 H       1  ZINC000893400114    0.1200
      6 C6         -7.6187    3.3649   50.6698 C.3     1  ZINC000893400114   -0.1400
      7 C7         -7.8781    2.9171   52.1254 C.3     1  ZINC000893400114    0.1000
      8 N8         -7.4942    1.5015   52.1739 N.am    1  ZINC000893400114   -0.6200
      9 C9         -7.8937    0.5724   53.2339 C.3     1  ZINC000893400114    0.1600
     10 C10        -8.0841    1.3418   54.5446 C.3     1  ZINC000893400114   -0.1700
     11 C11        -8.5772    0.3772   55.6265 C.3     1  ZINC000893400114    0.0700
     12 O12        -9.7931   -0.2378   55.1960 O.3     1  ZINC000893400114   -0.3800
     13 C13        -9.6651   -1.0100   54.0004 C.3     1  ZINC000893400114    0.0700
     14 C14        -9.2158   -0.1012   52.8533 C.3     1  ZINC000893400114   -0.1700
     15 C15        -6.7278    1.1645   51.1181 C.2     1  ZINC000893400114    0.5100
     16 O16        -6.2691    0.0599   50.9170 O.2     1  ZINC000893400114   -0.4900
     17 N17        -3.0207    3.3337   49.6694 N.am    1  ZINC000893400114   -0.6300
     18 C18        -2.6925    4.0614   50.9056 C.3     1  ZINC000893400114    0.0800
     19 C19        -1.3885    3.4884   51.4721 C.3     1  ZINC000893400114    0.0500
     20 O20        -0.3896    3.4912   50.4495 O.3     1  ZINC000893400114   -0.3800
     21 C21        -0.7023    2.6678   49.3234 C.3     1  ZINC000893400114    0.0600
     22 C22        -1.9696    3.1940   48.6492 C.3     1  ZINC000893400114    0.1400
     23 H23        -1.7696    4.1669   48.2004 H       1  ZINC000893400114    0.0800
     24 C24        -2.4240    2.2113   47.5681 C.3     1  ZINC000893400114   -0.1200
     25 C25        -1.2548    1.9106   46.6282 C.3     1  ZINC000893400114    0.0700
     26 H26        -0.5360    2.7294   46.6586 H       1  ZINC000893400114    0.0800
     27 C27        -1.7758    1.7244   45.1869 C.3     1  ZINC000893400114   -0.1500
     28 C28        -0.8988    0.5523   44.6682 C.3     1  ZINC000893400114   -0.1600
     29 C29        -0.7235   -0.2796   45.9637 C.3     1  ZINC000893400114    0.0500
     30 O30        -0.6172    0.6896   47.0211 O.3     1  ZINC000893400114   -0.3800
     31 H31        -4.9917    3.4177   51.2501 H       1  ZINC000893400114    0.4000
     32 H32        -7.2489    4.3897   50.6371 H       1  ZINC000893400114    0.1000
     33 H33        -8.5171    3.2563   50.0624 H       1  ZINC000893400114    0.1000
     34 H34        -7.2644    3.4981   52.8138 H       1  ZINC000893400114    0.0700
     35 H35        -8.9336    3.0304   52.3725 H       1  ZINC000893400114    0.0800
     36 H36        -7.1220   -0.1864   53.3636 H       1  ZINC000893400114    0.0900
     37 H37        -7.1339    1.7787   54.8518 H       1  ZINC000893400114    0.0800
     38 H38        -8.8197    2.1328   54.3992 H       1  ZINC000893400114    0.0900
     39 H39        -7.8231   -0.3905   55.8000 H       1  ZINC000893400114    0.0500
     40 H40        -8.7553    0.9275   56.5503 H       1  ZINC000893400114    0.1000
     41 H41        -8.9254   -1.7958   54.1528 H       1  ZINC000893400114    0.0500
     42 H42       -10.6270   -1.4590   53.7530 H       1  ZINC000893400114    0.1000
     43 H43        -9.9743    0.6608   52.6738 H       1  ZINC000893400114    0.0900
     44 H44        -9.0750   -0.6961   51.9510 H       1  ZINC000893400114    0.0700
     45 H45        -2.5626    5.1208   50.6844 H       1  ZINC000893400114    0.0800
     46 H46        -3.4957    3.9332   51.6312 H       1  ZINC000893400114    0.0800
     47 H47        -1.0546    4.1018   52.3090 H       1  ZINC000893400114    0.1100
     48 H48        -1.5575    2.4670   51.8131 H       1  ZINC000893400114    0.0500
     49 H49         0.1252    2.6909   48.6145 H       1  ZINC000893400114    0.1300
     50 H50        -0.8689    1.6434   49.6566 H       1  ZINC000893400114    0.0500
     51 H51        -2.7611    1.2865   48.0362 H       1  ZINC000893400114    0.0800
     52 H52        -3.2437    2.6504   46.9994 H       1  ZINC000893400114    0.1100
     53 H53        -2.8304    1.4487   45.1884 H       1  ZINC000893400114    0.0800
     54 H54        -1.6099    2.6245   44.5951 H       1  ZINC000893400114    0.0800
     55 H55        -1.4212   -0.0199   43.9017 H       1  ZINC000893400114    0.0800
     56 H56         0.0616    0.9133   44.3003 H       1  ZINC000893400114    0.0800
     57 H57        -1.5912   -0.9200   46.1223 H       1  ZINC000893400114    0.0600
     58 H58         0.1850   -0.8791   45.9083 H       1  ZINC000893400114    0.0800
@<TRIPOS>BOND
     1     1     2    2
     2     2     3   am
     3     2    17   am
     4     3     4    1
     5     3    31    1
     6     4     5    1
     7     4    15    1
     8     4     6    1
     9     6     7    1
    10     6    32    1
    11     6    33    1
    12     7     8    1
    13     7    34    1
    14     7    35    1
    15     8     9    1
    16     8    15   am
    17     9    14    1
    18     9    10    1
    19     9    36    1
    20    10    11    1
    21    10    37    1
    22    10    38    1
    23    11    12    1
    24    11    39    1
    25    11    40    1
    26    12    13    1
    27    13    14    1
    28    13    41    1
    29    13    42    1
    30    14    43    1
    31    14    44    1
    32    15    16    2
    33    17    22    1
    34    17    18    1
    35    18    19    1
    36    18    45    1
    37    18    46    1
    38    19    20    1
    39    19    47    1
    40    19    48    1
    41    20    21    1
    42    21    22    1
    43    21    49    1
    44    21    50    1
    45    22    23    1
    46    22    24    1
    47    24    25    1
    48    24    51    1
    49    24    52    1
    50    25    26    1
    51    25    30    1
    52    25    27    1
    53    27    28    1
    54    27    53    1
    55    27    54    1
    56    28    29    1
    57    28    55    1
    58    28    56    1
    59    29    30    1
    60    29    57    1
    61    29    58    1
@<TRIPOS>SUBSTRUCTURE
     1 ZINC000893400114        1 TEMP              0 ****  ****    0 ROOT


##########                                Name:    ZINC000274225049
##########                DOCK_Rotatable_Bonds:                   6
##########                         Heavy_Atoms:                  25
##########                    Molecular_Weight:             380.895
##########                DOCK_Rotatable_Bonds:                   6
##########                       Formal_Charge:           0.0200006
##########                     HBond_Acceptors:                   7
##########                        HBond_Donors:                   2
##########                         Heavy_Atoms:                  25
##########                          Grid_Score:          -33.650864
##########                     Grid_vdw_energy:          -32.157619
##########                      Grid_es_energy:           -1.493246
##########           Internal_energy_repulsive:           18.092892

@<TRIPOS>MOLECULE
ZINC000274225049
 46 48 1 0 0
SMALL
USER_CHARGES


@<TRIPOS>ATOM
      1 C1         -5.2590    3.2982   49.5867 C.3     1  ZINC000274225049   -0.1600
      2 C2         -4.5493    2.3897   50.5926 C.3     1  ZINC000274225049    0.2000
      3 H3         -3.9743    2.9990   51.2899 H       1  ZINC000274225049    0.1100
      4 N4         -3.6476    1.4819   49.8792 N.am    1  ZINC000274225049   -0.7400
      5 C5         -2.3931    1.8744   49.5815 C.2     1  ZINC000274225049    0.7100
      6 O6         -2.0093    2.9814   49.9063 O.2     1  ZINC000274225049   -0.5800
      7 N7         -1.5640    1.0398   48.9238 N.am    1  ZINC000274225049   -0.7500
      8 C8         -0.1999    1.4657   48.6017 C.3     1  ZINC000274225049    0.1500
      9 C9         -0.0181    1.4893   47.0827 C.3     1  ZINC000274225049   -0.1000
     10 H10         1.0409    1.5609   46.8348 H       1  ZINC000274225049    0.1000
     11 C11        -0.7826    2.6804   46.4790 C.3     1  ZINC000274225049   -0.1100
     12 C12        -0.8688    2.4895   44.9516 C.3     1  ZINC000274225049   -0.5900
     13 S13        -0.8182    0.6792   44.6944 S.o2    1  ZINC000274225049    2.3900
     14 O14        -2.0831    0.2349   44.2236 O.2     1  ZINC000274225049   -0.9300
     15 O15         0.3623    0.3378   43.9810 O.2     1  ZINC000274225049   -0.9300
     16 C16        -0.6247    0.2076   46.4554 C.3     1  ZINC000274225049   -0.5900
     17 C17        -5.5726    1.5864   51.3531 C.ar    1  ZINC000274225049   -0.0700
     18 C18        -5.9564    1.9762   52.6472 C.ar    1  ZINC000274225049   -0.0300
     19 C19        -5.4031    3.1130   53.2612 C.ar    1  ZINC000274225049   -0.1100
     20 C20        -5.7992    3.4605   54.5159 C.ar    1  ZINC000274225049   -0.1100
     21 C21        -6.7474    2.7055   55.2041 C.ar    1  ZINC000274225049   -0.1100
     22 C22        -7.3047    1.5987   54.6413 C.ar    1  ZINC000274225049   -0.1000
     23 C23        -6.9206    1.2085   53.3471 C.ar    1  ZINC000274225049   -0.0400
     24 C24        -7.4745    0.0716   52.7326 C.ar    1  ZINC000274225049   -0.0300
     25 Cl25       -8.6577   -0.8841   53.5696 Cl      1  ZINC000274225049   -0.0600
     26 C26        -7.0777   -0.2756   51.4762 C.ar    1  ZINC000274225049   -0.1000
     27 C27        -6.1338    0.4825   50.7873 C.ar    1  ZINC000274225049   -0.1000
     28 H28        -4.5189    3.8793   49.0367 H       1  ZINC000274225049    0.0700
     29 H29        -5.8340    2.6888   48.8894 H       1  ZINC000274225049    0.0700
     30 H30        -5.9299    3.9737   50.1176 H       1  ZINC000274225049    0.0800
     31 H31        -3.9534    0.5983   49.6211 H       1  ZINC000274225049    0.4000
     32 H32        -1.8707    0.1570   48.6636 H       1  ZINC000274225049    0.4000
     33 H33        -0.0264    2.4638   49.0039 H       1  ZINC000274225049    0.0800
     34 H34         0.5122    0.7677   49.0421 H       1  ZINC000274225049    0.0800
     35 H35        -1.7870    2.7228   46.9003 H       1  ZINC000274225049    0.0900
     36 H36        -0.2539    3.6068   46.7032 H       1  ZINC000274225049    0.0900
     37 H37        -1.8042    2.8998   44.5710 H       1  ZINC000274225049    0.1400
     38 H38        -0.0191    2.9652   44.4621 H       1  ZINC000274225049    0.1400
     39 H39         0.0589   -0.6352   46.5573 H       1  ZINC000274225049    0.1400
     40 H40        -1.5918   -0.0210   46.9033 H       1  ZINC000274225049    0.1400
     41 H41        -4.6672    3.7073   52.7401 H       1  ZINC000274225049    0.1300
     42 H42        -5.3722    4.3343   54.9856 H       1  ZINC000274225049    0.1300
     43 H43        -7.0440    3.0031   56.1990 H       1  ZINC000274225049    0.1300
     44 H44        -8.0379    1.0232   55.1867 H       1  ZINC000274225049    0.1300
     45 H45        -7.5041   -1.1495   51.0061 H       1  ZINC000274225049    0.1300
     46 H46        -5.8365    0.1855   49.7924 H       1  ZINC000274225049    0.1300
@<TRIPOS>BOND
     1     1     2    1
     2     1    28    1
     3     1    29    1
     4     1    30    1
     5     2     3    1
     6     2     4    1
     7     2    17    1
     8     4     5   am
     9     4    31    1
    10     5     6    2
    11     5     7   am
    12     7     8    1
    13     7    32    1
    14     8     9    1
    15     8    33    1
    16     8    34    1
    17     9    10    1
    18     9    16    1
    19     9    11    1
    20    11    12    1
    21    11    35    1
    22    11    36    1
    23    12    13    1
    24    12    37    1
    25    12    38    1
    26    13    14    2
    27    13    15    2
    28    13    16    1
    29    16    39    1
    30    16    40    1
    31    17    27   ar
    32    17    18   ar
    33    18    23   ar
    34    18    19   ar
    35    19    20   ar
    36    19    41    1
    37    20    21   ar
    38    20    42    1
    39    21    22   ar
    40    21    43    1
    41    22    23   ar
    42    22    44    1
    43    23    24   ar
    44    24    25    1
    45    24    26   ar
    46    26    27   ar
    47    26    45    1
    48    27    46    1
@<TRIPOS>SUBSTRUCTURE
     1 ZINC000274225049        1 TEMP              0 ****  ****    0 ROOT


##########                                Name:    ZINC000482846390
##########                DOCK_Rotatable_Bonds:                   9
##########                         Heavy_Atoms:                  30
##########                    Molecular_Weight:             420.469
##########                DOCK_Rotatable_Bonds:                   9
##########                       Formal_Charge:          -0.0100011
##########                     HBond_Acceptors:                  11
##########                        HBond_Donors:                   2
##########                         Heavy_Atoms:                  30
##########                          Grid_Score:          -33.649616
##########                     Grid_vdw_energy:          -34.247635
##########                      Grid_es_energy:            0.598019
##########           Internal_energy_repulsive:           26.895142

@<TRIPOS>MOLECULE
ZINC000482846390
 58 60 1 0 0
SMALL
USER_CHARGES


@<TRIPOS>ATOM
      1 C1        -11.3615   -1.6604   56.1844 C.3     1  ZINC000482846390   -0.1000
      2 C2        -10.1654   -1.1052   55.4550 C.2     1  ZINC000482846390    0.0900
      3 C3         -9.9869   -1.0863   54.1138 C.2     1  ZINC000482846390   -0.2700
      4 C4         -8.7507   -0.4864   53.8525 C.2     1  ZINC000482846390    0.0700
      5 C5         -8.1498   -0.2580   52.4895 C.3     1  ZINC000482846390   -0.0500
      6 C6         -7.2979    1.0126   52.5141 C.3     1  ZINC000482846390    0.1500
      7 H7         -6.4950    0.8977   53.2424 H       1  ZINC000482846390    0.1000
      8 C8         -8.1728    2.2058   52.9036 C.3     1  ZINC000482846390   -0.1700
      9 N9         -6.7234    1.2412   51.1859 N.am    1  ZINC000482846390   -0.6800
     10 C10        -5.6978    2.1023   51.0345 C.2     1  ZINC000482846390    0.5100
     11 O11        -5.2492    2.6871   51.9984 O.2     1  ZINC000482846390   -0.5200
     12 C12        -5.1129    2.3368   49.6793 C.2     1  ZINC000482846390    0.5100
     13 O13        -5.7516    2.9341   48.8378 O.2     1  ZINC000482846390   -0.5100
     14 N14        -3.8762    1.8850   49.3916 N.am    1  ZINC000482846390   -0.5900
     15 C15        -3.2861    2.1137   48.0652 C.3     1  ZINC000482846390    0.0500
     16 C16        -1.9372    2.8211   48.2443 C.3     1  ZINC000482846390    0.1000
     17 N17        -1.1543    2.0915   49.2515 N.am    1  ZINC000482846390   -0.6000
     18 C18         0.0828    1.6404   48.9641 C.2     1  ZINC000482846390    0.5200
     19 O19         0.7198    1.0392   49.8040 O.2     1  ZINC000482846390   -0.5000
     20 C20         0.6704    1.8808   47.6111 C.2     1  ZINC000482846390    0.5200
     21 O21         1.3299    2.8783   47.4045 O.2     1  ZINC000482846390   -0.5000
     22 N22         0.4676    0.9899   46.6204 N.am    1  ZINC000482846390   -0.6000
     23 C23        -0.3336   -0.2237   46.8453 C.3     1  ZINC000482846390    0.0700
     24 C24        -1.3836   -0.3228   45.7329 C.3     1  ZINC000482846390    0.0500
     25 O25        -0.7355   -0.2162   44.4630 O.3     1  ZINC000482846390   -0.3700
     26 C26        -0.0762    1.0335   44.2454 C.3     1  ZINC000482846390    0.0500
     27 C27         1.0359    1.2049   45.2802 C.3     1  ZINC000482846390    0.0700
     28 C28        -1.7443    1.8627   50.5780 C.3     1  ZINC000482846390    0.0900
     29 C29        -3.0911    1.1601   50.4006 C.3     1  ZINC000482846390    0.0900
     30 N30        -8.2065   -0.1569   54.9958 N.2     1  ZINC000482846390   -0.2800
     31 N31        -9.0829   -0.5325   56.0221 N.pl3   1  ZINC000482846390   -0.4700
     32 H32       -12.1080   -0.8758   56.3081 H       1  ZINC000482846390    0.0800
     33 H33       -11.7892   -2.4814   55.6089 H       1  ZINC000482846390    0.0900
     34 H34       -11.0525   -2.0256   57.1639 H       1  ZINC000482846390    0.0700
     35 H35       -10.6769   -1.4673   53.3756 H       1  ZINC000482846390    0.1500
     36 H36        -7.5246   -1.1095   52.2208 H       1  ZINC000482846390    0.0900
     37 H37        -8.9473   -0.1467   51.7549 H       1  ZINC000482846390    0.1100
     38 H38        -8.6001    2.0358   53.8918 H       1  ZINC000482846390    0.0700
     39 H39        -7.5658    3.1110   52.9211 H       1  ZINC000482846390    0.0700
     40 H40        -8.9756    2.3208   52.1754 H       1  ZINC000482846390    0.0600
     41 H41        -7.0812    0.7728   50.4156 H       1  ZINC000482846390    0.4200
     42 H42        -3.1343    1.1584   47.5627 H       1  ZINC000482846390    0.0800
     43 H43        -3.9519    2.7404   47.4717 H       1  ZINC000482846390    0.1600
     44 H44        -1.3986    2.8274   47.2966 H       1  ZINC000482846390    0.1100
     45 H45        -2.1026    3.8446   48.5806 H       1  ZINC000482846390    0.0800
     46 H46         0.3131   -1.1007   46.8189 H       1  ZINC000482846390    0.0900
     47 H47        -0.8297   -0.1618   47.8139 H       1  ZINC000482846390    0.0900
     48 H48        -1.8963   -1.2823   45.8005 H       1  ZINC000482846390    0.1100
     49 H49        -2.1067    0.4856   45.8415 H       1  ZINC000482846390    0.0600
     50 H50         0.3516    1.0497   43.2431 H       1  ZINC000482846390    0.1100
     51 H51        -0.7945    1.8468   44.3487 H       1  ZINC000482846390    0.0600
     52 H52         1.4489    2.2113   45.2120 H       1  ZINC000482846390    0.1100
     53 H53         1.8221    0.4720   45.0989 H       1  ZINC000482846390    0.0800
     54 H54        -1.0785    1.2361   51.1714 H       1  ZINC000482846390    0.0900
     55 H55        -1.8960    2.8180   51.0804 H       1  ZINC000482846390    0.0900
     56 H56        -3.6284    1.1546   51.3490 H       1  ZINC000482846390    0.1100
     57 H57        -2.9281    0.1365   50.0636 H       1  ZINC000482846390    0.0800
     58 H58        -8.9351   -0.4085   56.9728 H       1  ZINC000482846390    0.4400
@<TRIPOS>BOND
     1     1     2    1
     2     1    32    1
     3     1    33    1
     4     1    34    1
     5     2    31    1
     6     2     3    2
     7     3     4    1
     8     3    35    1
     9     4     5    1
    10     4    30    2
    11     5     6    1
    12     5    36    1
    13     5    37    1
    14     6     7    1
    15     6     8    1
    16     6     9    1
    17     8    38    1
    18     8    39    1
    19     8    40    1
    20     9    10   am
    21     9    41    1
    22    10    11    2
    23    10    12    1
    24    12    13    2
    25    12    14   am
    26    14    29    1
    27    14    15    1
    28    15    16    1
    29    15    42    1
    30    15    43    1
    31    16    17    1
    32    16    44    1
    33    16    45    1
    34    17    18   am
    35    17    28    1
    36    18    19    2
    37    18    20    1
    38    20    21    2
    39    20    22   am
    40    22    27    1
    41    22    23    1
    42    23    24    1
    43    23    46    1
    44    23    47    1
    45    24    25    1
    46    24    48    1
    47    24    49    1
    48    25    26    1
    49    26    27    1
    50    26    50    1
    51    26    51    1
    52    27    52    1
    53    27    53    1
    54    28    29    1
    55    28    54    1
    56    28    55    1
    57    29    56    1
    58    29    57    1
    59    30    31    1
    60    31    58    1
@<TRIPOS>SUBSTRUCTURE
     1 ZINC000482846390        1 TEMP              0 ****  ****    0 ROOT


##########                                Name:    ZINC000435005159
##########                DOCK_Rotatable_Bonds:                  12
##########                         Heavy_Atoms:                  30
##########                    Molecular_Weight:             401.508
##########                DOCK_Rotatable_Bonds:                  12
##########                       Formal_Charge:          -0.0399985
##########                     HBond_Acceptors:                   5
##########                        HBond_Donors:                   2
##########                         Heavy_Atoms:                  30
##########                          Grid_Score:          -33.642879
##########                     Grid_vdw_energy:          -32.568802
##########                      Grid_es_energy:           -1.074078
##########           Internal_energy_repulsive:           11.287704

@<TRIPOS>MOLECULE
ZINC000435005159
 57 59 1 0 0
SMALL
USER_CHARGES


@<TRIPOS>ATOM
      1 O1         -4.3571    4.7006   51.3516 O.2     1  ZINC000435005159   -0.5300
      2 C2         -4.0277    3.5413   51.2157 C.2     1  ZINC000435005159    0.5200
      3 C3         -2.5849    3.1936   50.9541 C.3     1  ZINC000435005159   -0.1400
      4 C4         -2.0486    4.0645   49.8162 C.3     1  ZINC000435005159   -0.1200
      5 C5         -0.6864    3.5332   49.3658 C.3     1  ZINC000435005159    0.1200
      6 N6         -0.8762    2.3275   48.5555 N.am    1  ZINC000435005159   -0.7200
      7 C7         -0.6735    2.3718   47.2238 C.2     1  ZINC000435005159    0.5600
      8 O8         -0.3346    3.4125   46.6949 O.2     1  ZINC000435005159   -0.5300
      9 C9         -0.8633    1.1547   46.4063 C.ar    1  ZINC000435005159   -0.1900
     10 C10        -1.3004   -0.0375   46.9954 C.ar    1  ZINC000435005159   -0.0200
     11 C11        -1.4626   -1.1482   46.1859 C.ar    1  ZINC000435005159   -0.1800
     12 C12        -1.1904   -1.0460   44.8338 C.ar    1  ZINC000435005159    0.1200
     13 N13        -0.7792    0.0913   44.3058 N.ar    1  ZINC000435005159   -0.4900
     14 C14        -0.6153    1.1765   45.0330 C.ar    1  ZINC000435005159    0.1400
     15 N15        -4.9511    2.5635   51.3043 N.am    1  ZINC000435005159   -0.7300
     16 C16        -6.3537    2.9015   51.5586 C.3     1  ZINC000435005159    0.1900
     17 H17        -6.4055    3.7318   52.2630 H       1  ZINC000435005159    0.1000
     18 C18        -7.0274    3.3043   50.2452 C.3     1  ZINC000435005159   -0.1200
     19 C19        -7.8791    4.5549   50.4716 C.3     1  ZINC000435005159   -0.0800
     20 C20        -9.0768    4.5192   49.5577 C.ar    1  ZINC000435005159   -0.0800
     21 C21       -10.2740    3.9941   50.0073 C.ar    1  ZINC000435005159   -0.1200
     22 C22       -11.3727    3.9615   49.1690 C.ar    1  ZINC000435005159   -0.1200
     23 C23       -11.2743    4.4543   47.8812 C.ar    1  ZINC000435005159   -0.1200
     24 C24       -10.0775    4.9801   47.4319 C.ar    1  ZINC000435005159   -0.1200
     25 C25        -8.9800    5.0168   48.2717 C.ar    1  ZINC000435005159   -0.1200
     26 C26        -7.0615    1.7047   52.1398 C.ar    1  ZINC000435005159   -0.1000
     27 C27        -7.1311    0.5264   51.4204 C.ar    1  ZINC000435005159   -0.1100
     28 C28        -7.7803   -0.5715   51.9535 C.ar    1  ZINC000435005159   -0.1200
     29 C29        -8.3595   -0.4911   53.2062 C.ar    1  ZINC000435005159   -0.1200
     30 C30        -8.2890    0.6870   53.9258 C.ar    1  ZINC000435005159   -0.1200
     31 C31        -7.6361    1.7835   53.3945 C.ar    1  ZINC000435005159   -0.1000
     32 H32        -1.9988    3.3725   51.8557 H       1  ZINC000435005159    0.1000
     33 H33        -2.5093    2.1429   50.6741 H       1  ZINC000435005159    0.1000
     34 H34        -2.7449    4.0363   48.9780 H       1  ZINC000435005159    0.0800
     35 H35        -1.9409    5.0917   50.1646 H       1  ZINC000435005159    0.0800
     36 H36        -0.1779    4.2932   48.7728 H       1  ZINC000435005159    0.0700
     37 H37        -0.0833    3.2913   50.2410 H       1  ZINC000435005159    0.0700
     38 H38        -1.1478    1.4973   48.9774 H       1  ZINC000435005159    0.4000
     39 H39        -1.5053   -0.0893   48.0546 H       1  ZINC000435005159    0.1500
     40 H40        -1.7979   -2.0851   46.6057 H       1  ZINC000435005159    0.1500
     41 H41        -1.3163   -1.9112   44.1997 H       1  ZINC000435005159    0.1600
     42 H42        -0.2774    2.0890   44.5645 H       1  ZINC000435005159    0.1600
     43 H43        -4.6869    1.6360   51.1995 H       1  ZINC000435005159    0.4000
     44 H44        -6.2648    3.5150   49.4954 H       1  ZINC000435005159    0.0700
     45 H45        -7.6630    2.4897   49.8981 H       1  ZINC000435005159    0.0800
     46 H46        -8.2141    4.5837   51.5084 H       1  ZINC000435005159    0.0700
     47 H47        -7.2848    5.4431   50.2570 H       1  ZINC000435005159    0.0700
     48 H48       -10.3508    3.6091   51.0134 H       1  ZINC000435005159    0.1200
     49 H49       -12.3077    3.5506   49.5200 H       1  ZINC000435005159    0.1200
     50 H50       -12.1325    4.4281   47.2260 H       1  ZINC000435005159    0.1200
     51 H51       -10.0005    5.3648   46.4257 H       1  ZINC000435005159    0.1200
     52 H52        -8.0449    5.4276   47.9206 H       1  ZINC000435005159    0.1200
     53 H53        -6.6786    0.4635   50.4418 H       1  ZINC000435005159    0.1200
     54 H54        -7.8354   -1.4919   51.3912 H       1  ZINC000435005159    0.1200
     55 H55        -8.8672   -1.3486   53.6223 H       1  ZINC000435005159    0.1200
     56 H56        -8.7417    0.7500   54.9043 H       1  ZINC000435005159    0.1200
     57 H57        -7.5809    2.7039   53.9569 H       1  ZINC000435005159    0.1200
@<TRIPOS>BOND
     1     1     2    2
     2     2     3    1
     3     2    15   am
     4     3     4    1
     5     3    32    1
     6     3    33    1
     7     4     5    1
     8     4    34    1
     9     4    35    1
    10     5     6    1
    11     5    36    1
    12     5    37    1
    13     6     7   am
    14     6    38    1
    15     7     8    2
    16     7     9    1
    17     9    14   ar
    18     9    10   ar
    19    10    11   ar
    20    10    39    1
    21    11    12   ar
    22    11    40    1
    23    12    13   ar
    24    12    41    1
    25    13    14   ar
    26    14    42    1
    27    15    16    1
    28    15    43    1
    29    16    17    1
    30    16    18    1
    31    16    26    1
    32    18    19    1
    33    18    44    1
    34    18    45    1
    35    19    20    1
    36    19    46    1
    37    19    47    1
    38    20    25   ar
    39    20    21   ar
    40    21    22   ar
    41    21    48    1
    42    22    23   ar
    43    22    49    1
    44    23    24   ar
    45    23    50    1
    46    24    25   ar
    47    24    51    1
    48    25    52    1
    49    26    31   ar
    50    26    27   ar
    51    27    28   ar
    52    27    53    1
    53    28    29   ar
    54    28    54    1
    55    29    30   ar
    56    29    55    1
    57    30    31   ar
    58    30    56    1
    59    31    57    1
@<TRIPOS>SUBSTRUCTURE
     1 ZINC000435005159        1 TEMP              0 ****  ****    0 ROOT


##########                                Name:    ZINC000503413572
##########                DOCK_Rotatable_Bonds:                   7
##########                         Heavy_Atoms:                  26
##########                    Molecular_Weight:             355.375
##########                DOCK_Rotatable_Bonds:                   7
##########                       Formal_Charge:        -1.71363e-07
##########                     HBond_Acceptors:                   9
##########                        HBond_Donors:                   1
##########                         Heavy_Atoms:                  26
##########                          Grid_Score:          -33.638794
##########                     Grid_vdw_energy:          -34.255707
##########                      Grid_es_energy:            0.616913
##########           Internal_energy_repulsive:            6.070749

@<TRIPOS>MOLECULE
ZINC000503413572
 44 47 1 0 0
SMALL
USER_CHARGES


@<TRIPOS>ATOM
      1 C1         -5.2284    2.7943   52.9985 C.3     1  ZINC000503413572   -0.1200
      2 C2         -6.0078    1.5645   52.6101 C.ar    1  ZINC000503413572   -0.0200
      3 C3         -6.8881    0.9926   53.5072 C.ar    1  ZINC000503413572   -0.1400
      4 C4         -7.6050   -0.1376   53.1505 C.ar    1  ZINC000503413572    0.1300
      5 F5         -8.4661   -0.6956   54.0293 F       1  ZINC000503413572   -0.1300
      6 C6         -7.4406   -0.6960   51.8941 C.ar    1  ZINC000503413572   -0.1400
      7 C7         -6.5609   -0.1266   50.9942 C.ar    1  ZINC000503413572   -0.0700
      8 C8         -5.8455    1.0090   51.3480 C.ar    1  ZINC000503413572    0.1000
      9 N9         -4.9521    1.5889   50.4351 N.pl3   1  ZINC000503413572   -0.3100
     10 C10        -3.6658    1.2321   50.2296 C.2     1  ZINC000503413572    0.1100
     11 C11        -3.1778    2.0577   49.2565 C.2     1  ZINC000503413572   -0.1000
     12 C12        -1.8081    2.0301   48.7094 C.2     1  ZINC000503413572    0.6100
     13 O13        -0.9138    1.4955   49.3362 O.2     1  ZINC000503413572   -0.5300
     14 N14        -1.5481    2.5976   47.5149 N.am    1  ZINC000503413572   -0.7200
     15 C15        -0.1881    2.5687   46.9708 C.3     1  ZINC000503413572    0.1100
     16 C16        -0.2296    2.8955   45.4767 C.3     1  ZINC000503413572    0.1000
     17 N17        -0.6632    1.7120   44.7299 N.pl3   1  ZINC000503413572   -0.4700
     18 C18        -1.9357    1.3644   44.4205 C.2     1  ZINC000503413572    0.1500
     19 N19        -1.8806    0.2452   43.7511 N.2     1  ZINC000503413572   -0.2900
     20 N20        -0.6553   -0.1241   43.6251 N.2     1  ZINC000503413572   -0.2900
     21 C21         0.1274    0.7457   44.2035 C.2     1  ZINC000503413572    0.2100
     22 C22         1.6311    0.6816   44.2803 C.3     1  ZINC000503413572   -0.1000
     23 C23         2.3632   -0.0800   43.1736 C.3     1  ZINC000503413572   -0.1500
     24 C24         2.4259    1.4479   43.2212 C.3     1  ZINC000503413572   -0.1600
     25 N25        -4.1566    2.8992   48.8819 N.2     1  ZINC000503413572   -0.2000
     26 N26        -5.2241    2.6467   49.5559 N.2     1  ZINC000503413572   -0.0400
     27 H27        -5.7540    3.6830   52.6490 H       1  ZINC000503413572    0.0900
     28 H28        -5.1290    2.8340   54.0833 H       1  ZINC000503413572    0.0800
     29 H29        -4.2384    2.7556   52.5441 H       1  ZINC000503413572    0.0700
     30 H30        -7.0173    1.4265   54.4876 H       1  ZINC000503413572    0.1500
     31 H31        -8.0001   -1.5775   51.6178 H       1  ZINC000503413572    0.1500
     32 H32        -6.4326   -0.5627   50.0145 H       1  ZINC000503413572    0.1500
     33 H33        -3.1267    0.4459   50.7372 H       1  ZINC000503413572    0.2100
     34 H34        -2.2613    3.0252   47.0155 H       1  ZINC000503413572    0.4100
     35 H35         0.4256    3.3067   47.4873 H       1  ZINC000503413572    0.0800
     36 H36         0.2395    1.5763   47.1139 H       1  ZINC000503413572    0.0800
     37 H37        -0.9306    3.7119   45.3026 H       1  ZINC000503413572    0.1100
     38 H38         0.7643    3.1923   45.1419 H       1  ZINC000503413572    0.1100
     39 H39        -2.8299    1.9116   44.6802 H       1  ZINC000503413572    0.2200
     40 H40         2.0488    0.6335   45.2860 H       1  ZINC000503413572    0.1200
     41 H41         3.2628   -0.6294   43.4511 H       1  ZINC000503413572    0.1100
     42 H42         1.7573   -0.5348   42.3899 H       1  ZINC000503413572    0.1100
     43 H43         1.8612    1.9985   42.4687 H       1  ZINC000503413572    0.1000
     44 H44         3.3666    1.9037   43.5300 H       1  ZINC000503413572    0.1100
@<TRIPOS>BOND
     1     1     2    1
     2     1    27    1
     3     1    28    1
     4     1    29    1
     5     2     8   ar
     6     2     3   ar
     7     3     4   ar
     8     3    30    1
     9     4     5    1
    10     4     6   ar
    11     6     7   ar
    12     6    31    1
    13     7     8   ar
    14     7    32    1
    15     8     9    1
    16     9    26    1
    17     9    10    1
    18    10    11    2
    19    10    33    1
    20    11    12    1
    21    11    25    1
    22    12    13    2
    23    12    14   am
    24    14    15    1
    25    14    34    1
    26    15    16    1
    27    15    35    1
    28    15    36    1
    29    16    17    1
    30    16    37    1
    31    16    38    1
    32    17    21    1
    33    17    18    1
    34    18    19    2
    35    18    39    1
    36    19    20    1
    37    20    21    2
    38    21    22    1
    39    22    24    1
    40    22    23    1
    41    22    40    1
    42    23    24    1
    43    23    41    1
    44    23    42    1
    45    24    43    1
    46    24    44    1
    47    25    26    2
@<TRIPOS>SUBSTRUCTURE
     1 ZINC000503413572        1 TEMP              0 ****  ****    0 ROOT


##########                                Name:    ZINC001061022329
##########                DOCK_Rotatable_Bonds:                   7
##########                         Heavy_Atoms:                  27
##########                    Molecular_Weight:             374.523
##########                DOCK_Rotatable_Bonds:                   7
##########                       Formal_Charge:           0.0800005
##########                     HBond_Acceptors:                   5
##########                        HBond_Donors:                   0
##########                         Heavy_Atoms:                  27
##########                          Grid_Score:          -33.598469
##########                     Grid_vdw_energy:          -32.334946
##########                      Grid_es_energy:           -1.263521
##########           Internal_energy_repulsive:           24.139538

@<TRIPOS>MOLECULE
ZINC001061022329
 61 64 1 0 0
SMALL
USER_CHARGES


@<TRIPOS>ATOM
      1 C1         -0.9602   -0.2158   44.7432 C.3     1  ZINC001061022329   -0.1500
      2 C2         -0.8704   -0.4685   46.2495 C.3     1  ZINC001061022329   -0.1200
      3 C3         -0.2673    0.7579   46.9373 C.3     1  ZINC001061022329    0.0800
      4 H4         -0.2468    0.5967   48.0151 H       1  ZINC001061022329    0.0600
      5 C5          1.1582    0.9790   46.4275 C.3     1  ZINC001061022329   -0.1800
      6 O6         -1.0623    1.9083   46.6429 O.3     1  ZINC001061022329   -0.3500
      7 C7         -2.3103    1.9457   47.3378 C.3     1  ZINC001061022329    0.0500
      8 C8         -2.2283    2.9433   48.4643 C.2     1  ZINC001061022329    0.5200
      9 O9         -1.2253    3.6087   48.6133 O.2     1  ZINC001061022329   -0.5100
     10 N10        -3.2695    3.0961   49.3063 N.am    1  ZINC001061022329   -0.6100
     11 C11        -3.2024    4.0685   50.4051 C.3     1  ZINC001061022329    0.1100
     12 C12        -3.4821    3.3408   51.7254 C.3     1  ZINC001061022329   -0.1200
     13 C13        -4.7873    2.5589   51.5985 C.3     1  ZINC001061022329   -0.0900
     14 C14        -5.2829    1.9699   52.9263 C.3     1  ZINC001061022329    0.1200
     15 N15        -6.6262    2.4123   52.5015 N.am    1  ZINC001061022329   -0.6400
     16 C16        -7.8838    2.0271   52.7961 C.2     1  ZINC001061022329    0.5400
     17 O17        -8.8267    2.5880   52.2792 O.2     1  ZINC001061022329   -0.5300
     18 C18        -8.1182    0.8993   53.7678 C.3     1  ZINC001061022329   -0.0900
     19 H19        -7.1852    0.6597   54.2779 H       1  ZINC001061022329    0.1000
     20 C20        -8.6154   -0.3328   53.0085 C.3     1  ZINC001061022329   -0.1000
     21 C21       -10.0005   -0.7340   53.5317 C.3     1  ZINC001061022329   -0.0600
     22 H22       -10.3963   -1.5793   52.9687 H       1  ZINC001061022329    0.0800
     23 C23       -10.9153    0.4751   53.4039 C.2     1  ZINC001061022329   -0.1800
     24 C24       -10.4829    1.5468   54.0642 C.2     1  ZINC001061022329   -0.1300
     25 C25        -9.1703    1.3247   54.8001 C.3     1  ZINC001061022329   -0.0400
     26 H26        -8.8650    2.2284   55.3274 H       1  ZINC001061022329    0.0900
     27 C27        -9.3777    0.1646   55.7836 C.3     1  ZINC001061022329   -0.1100
     28 C28        -9.8710   -1.0843   55.0205 C.3     1  ZINC001061022329   -0.1100
     29 C29        -6.0396    3.4462   51.6257 C.3     1  ZINC001061022329    0.1100
     30 C30        -4.7763    1.5534   50.4497 C.3     1  ZINC001061022329   -0.1100
     31 C31        -4.4899    2.2970   49.1344 C.3     1  ZINC001061022329    0.1100
     32 H32        -1.5925    0.6524   44.5575 H       1  ZINC001061022329    0.0500
     33 H33         0.0376   -0.0304   44.3458 H       1  ZINC001061022329    0.0600
     34 H34        -1.3898   -1.0896   44.2532 H       1  ZINC001061022329    0.0600
     35 H35        -1.8683   -0.6540   46.6469 H       1  ZINC001061022329    0.0800
     36 H36        -0.2382   -1.3368   46.4352 H       1  ZINC001061022329    0.0700
     37 H37         1.5878    1.8527   46.9174 H       1  ZINC001061022329    0.0600
     38 H38         1.7646    0.1016   46.6521 H       1  ZINC001061022329    0.0700
     39 H39         1.1377    1.1404   45.3497 H       1  ZINC001061022329    0.0700
     40 H40        -3.1015    2.2405   46.6483 H       1  ZINC001061022329    0.0800
     41 H41        -2.5306    0.9578   47.7426 H       1  ZINC001061022329    0.0800
     42 H42        -2.2085    4.5152   50.4375 H       1  ZINC001061022329    0.0900
     43 H43        -3.9502    4.8465   50.2510 H       1  ZINC001061022329    0.0800
     44 H44        -2.6649    2.6530   51.9428 H       1  ZINC001061022329    0.0800
     45 H45        -3.5707    4.0694   52.5314 H       1  ZINC001061022329    0.0800
     46 H46        -5.1774    0.8871   52.9937 H       1  ZINC001061022329    0.0800
     47 H47        -4.9062    2.4911   53.8064 H       1  ZINC001061022329    0.0900
     48 H48        -8.6816   -0.1019   51.9453 H       1  ZINC001061022329    0.0700
     49 H49        -7.9180   -1.1572   53.1580 H       1  ZINC001061022329    0.0700
     50 H50       -11.8304    0.4647   52.8305 H       1  ZINC001061022329    0.1200
     51 H51       -11.0145    2.4868   54.0761 H       1  ZINC001061022329    0.1200
     52 H52        -8.4329   -0.0684   56.2747 H       1  ZINC001061022329    0.0700
     53 H53       -10.1153    0.4513   56.5331 H       1  ZINC001061022329    0.0700
     54 H54       -10.8447   -1.3850   55.4072 H       1  ZINC001061022329    0.0700
     55 H55        -9.1590   -1.8982   55.1572 H       1  ZINC001061022329    0.0700
     56 H56        -5.8877    4.4061   52.1193 H       1  ZINC001061022329    0.0900
     57 H57        -6.5354    3.5368   50.6593 H       1  ZINC001061022329    0.0800
     58 H58        -4.0012    0.8076   50.6256 H       1  ZINC001061022329    0.0800
     59 H59        -5.7476    1.0629   50.3855 H       1  ZINC001061022329    0.0800
     60 H60        -5.3292    2.9493   48.8932 H       1  ZINC001061022329    0.0700
     61 H61        -4.3428    1.5752   48.3311 H       1  ZINC001061022329    0.1000
@<TRIPOS>BOND
     1     1     2    1
     2     1    32    1
     3     1    33    1
     4     1    34    1
     5     2     3    1
     6     2    35    1
     7     2    36    1
     8     3     4    1
     9     3     5    1
    10     3     6    1
    11     5    37    1
    12     5    38    1
    13     5    39    1
    14     6     7    1
    15     7     8    1
    16     7    40    1
    17     7    41    1
    18     8     9    2
    19     8    10   am
    20    10    31    1
    21    10    11    1
    22    11    12    1
    23    11    42    1
    24    11    43    1
    25    12    13    1
    26    12    44    1
    27    12    45    1
    28    13    29    1
    29    13    14    1
    30    13    30    1
    31    14    15    1
    32    14    46    1
    33    14    47    1
    34    15    16   am
    35    15    29    1
    36    16    17    2
    37    16    18    1
    38    18    19    1
    39    18    25    1
    40    18    20    1
    41    20    21    1
    42    20    48    1
    43    20    49    1
    44    21    22    1
    45    21    28    1
    46    21    23    1
    47    23    24    2
    48    23    50    1
    49    24    25    1
    50    24    51    1
    51    25    26    1
    52    25    27    1
    53    27    28    1
    54    27    52    1
    55    27    53    1
    56    28    54    1
    57    28    55    1
    58    29    56    1
    59    29    57    1
    60    30    31    1
    61    30    58    1
    62    30    59    1
    63    31    60    1
    64    31    61    1
@<TRIPOS>SUBSTRUCTURE
     1 ZINC001061022329        1 TEMP              0 ****  ****    0 ROOT


##########                                Name:    ZINC000008416770
##########                DOCK_Rotatable_Bonds:                  13
##########                         Heavy_Atoms:                  30
##########                    Molecular_Weight:             412.442
##########                DOCK_Rotatable_Bonds:                  13
##########                       Formal_Charge:          -0.0199998
##########                     HBond_Acceptors:                   8
##########                        HBond_Donors:                   2
##########                         Heavy_Atoms:                  30
##########                          Grid_Score:          -33.540150
##########                     Grid_vdw_energy:          -33.446548
##########                      Grid_es_energy:           -0.093601
##########           Internal_energy_repulsive:            9.277633

@<TRIPOS>MOLECULE
ZINC000008416770
 54 55 1 0 0
SMALL
USER_CHARGES


@<TRIPOS>ATOM
      1 C1        -14.7758   -2.7083   59.9291 C.3     1  ZINC000008416770   -0.1500
      2 C2        -15.4893   -3.3360   58.7300 C.3     1  ZINC000008416770    0.0600
      3 O3        -14.9728   -4.6744   58.5058 O.3     1  ZINC000008416770   -0.3500
      4 C4        -14.1052   -4.8325   57.4869 C.2     1  ZINC000008416770    0.5100
      5 O5        -14.0615   -5.8866   56.8841 O.2     1  ZINC000008416770   -0.5100
      6 C6        -13.2088   -3.7261   57.1034 C.ar    1  ZINC000008416770   -0.1500
      7 C7        -11.9408   -3.6188   57.6825 C.ar    1  ZINC000008416770   -0.0400
      8 C8        -11.1066   -2.5851   57.3219 C.ar    1  ZINC000008416770   -0.1400
      9 C9        -11.5238   -1.6476   56.3821 C.ar    1  ZINC000008416770    0.1800
     10 N10       -10.6762   -0.6019   56.0193 N.am    1  ZINC000008416770   -0.6700
     11 C11        -9.5795   -0.8503   55.2763 C.2     1  ZINC000008416770    0.5200
     12 O12        -9.3301   -1.9834   54.9233 O.2     1  ZINC000008416770   -0.5100
     13 C13        -8.6633    0.2801   54.8841 C.3     1  ZINC000008416770   -0.1300
     14 C14        -8.4412    0.2547   53.3704 C.3     1  ZINC000008416770   -0.1000
     15 C15        -8.5323    1.6568   52.8258 C.2     1  ZINC000008416770    0.4700
     16 O16        -9.6128    2.1492   52.6024 O.2     1  ZINC000008416770   -0.5100
     17 O17        -7.4130    2.3588   52.5888 O.3     1  ZINC000008416770   -0.3300
     18 C18        -7.1995    2.8197   51.2285 C.3     1  ZINC000008416770    0.0500
     19 C19        -5.8048    2.4565   50.7881 C.2     1  ZINC000008416770    0.5100
     20 O20        -5.3945    1.3259   50.9445 O.2     1  ZINC000008416770   -0.4900
     21 N21        -5.0134    3.3881   50.2204 N.am    1  ZINC000008416770   -0.6700
     22 C22        -3.7184    3.0510   49.8115 C.ar    1  ZINC000008416770    0.1400
     23 C23        -2.6416    3.2687   50.6611 C.ar    1  ZINC000008416770   -0.1400
     24 C24        -1.3646    2.9348   50.2545 C.ar    1  ZINC000008416770   -0.1000
     25 C25        -1.1576    2.3848   49.0029 C.ar    1  ZINC000008416770   -0.1000
     26 C26         0.2373    2.0221   48.5624 C.3     1  ZINC000008416770   -0.1200
     27 C27        -2.2276    2.1663   48.1548 C.ar    1  ZINC000008416770   -0.1000
     28 C28        -3.5077    2.4927   48.5576 C.ar    1  ZINC000008416770   -0.1200
     29 C29       -12.7850   -1.7515   55.8034 C.ar    1  ZINC000008416770   -0.1600
     30 C30       -13.6227   -2.7854   56.1556 C.ar    1  ZINC000008416770   -0.0300
     31 H31       -14.9499   -3.3181   60.8156 H       1  ZINC000008416770    0.0700
     32 H32       -13.7057   -2.6559   59.7284 H       1  ZINC000008416770    0.0700
     33 H33       -15.1634   -1.7035   60.0973 H       1  ZINC000008416770    0.0800
     34 H34       -16.5594   -3.3883   58.9306 H       1  ZINC000008416770    0.0700
     35 H35       -15.3152   -2.7261   57.8435 H       1  ZINC000008416770    0.0700
     36 H36       -11.6165   -4.3459   58.4122 H       1  ZINC000008416770    0.1400
     37 H37       -10.1271   -2.5014   57.7690 H       1  ZINC000008416770    0.1400
     38 H38       -10.8758    0.3044   56.3016 H       1  ZINC000008416770    0.4200
     39 H39        -9.1156    1.2300   55.1690 H       1  ZINC000008416770    0.1100
     40 H40        -7.7065    0.1657   55.3936 H       1  ZINC000008416770    0.1100
     41 H41        -7.4545   -0.1554   53.1549 H       1  ZINC000008416770    0.1200
     42 H42        -9.2035   -0.3675   52.9018 H       1  ZINC000008416770    0.1200
     43 H43        -7.9245    2.3462   50.5665 H       1  ZINC000008416770    0.1100
     44 H44        -7.3231    3.9019   51.1880 H       1  ZINC000008416770    0.1100
     45 H45        -5.3415    4.2923   50.0953 H       1  ZINC000008416770    0.4100
     46 H46        -2.8026    3.6989   51.6385 H       1  ZINC000008416770    0.1300
     47 H47        -0.5268    3.1038   50.9148 H       1  ZINC000008416770    0.1300
     48 H48         0.4532    0.9931   48.8500 H       1  ZINC000008416770    0.0700
     49 H49         0.3133    2.1203   47.4794 H       1  ZINC000008416770    0.0700
     50 H50         0.9542    2.6907   49.0390 H       1  ZINC000008416770    0.0700
     51 H51        -2.0626    1.7366   47.1777 H       1  ZINC000008416770    0.1300
     52 H52        -4.3432    2.3218   47.8947 H       1  ZINC000008416770    0.1300
     53 H53       -13.1055   -1.0223   55.0740 H       1  ZINC000008416770    0.1400
     54 H54       -14.6014   -2.8654   55.7061 H       1  ZINC000008416770    0.1400
@<TRIPOS>BOND
     1     1     2    1
     2     1    31    1
     3     1    32    1
     4     1    33    1
     5     2     3    1
     6     2    34    1
     7     2    35    1
     8     3     4    1
     9     4     5    2
    10     4     6    1
    11     6    30   ar
    12     6     7   ar
    13     7     8   ar
    14     7    36    1
    15     8     9   ar
    16     8    37    1
    17     9    10    1
    18     9    29   ar
    19    10    11   am
    20    10    38    1
    21    11    12    2
    22    11    13    1
    23    13    14    1
    24    13    39    1
    25    13    40    1
    26    14    15    1
    27    14    41    1
    28    14    42    1
    29    15    16    2
    30    15    17    1
    31    17    18    1
    32    18    19    1
    33    18    43    1
    34    18    44    1
    35    19    20    2
    36    19    21   am
    37    21    22    1
    38    21    45    1
    39    22    28   ar
    40    22    23   ar
    41    23    24   ar
    42    23    46    1
    43    24    25   ar
    44    24    47    1
    45    25    26    1
    46    25    27   ar
    47    26    48    1
    48    26    49    1
    49    26    50    1
    50    27    28   ar
    51    27    51    1
    52    28    52    1
    53    29    30   ar
    54    29    53    1
    55    30    54    1
@<TRIPOS>SUBSTRUCTURE
     1 ZINC000008416770        1 TEMP              0 ****  ****    0 ROOT


##########                                Name:    ZINC001347442583
##########                DOCK_Rotatable_Bonds:                   9
##########                         Heavy_Atoms:                  27
##########                    Molecular_Weight:             370.492
##########                DOCK_Rotatable_Bonds:                   9
##########                       Formal_Charge:          -0.0400009
##########                     HBond_Acceptors:                   5
##########                        HBond_Donors:                   1
##########                         Heavy_Atoms:                  27
##########                          Grid_Score:          -33.539745
##########                     Grid_vdw_energy:          -33.476753
##########                      Grid_es_energy:           -0.062993
##########           Internal_energy_repulsive:            9.399076

@<TRIPOS>MOLECULE
ZINC001347442583
 57 60 1 0 0
SMALL
USER_CHARGES


@<TRIPOS>ATOM
      1 O1        -10.2553   -4.2396   58.7343 O.2     1  ZINC001347442583   -0.5400
      2 C2        -11.2301   -3.6543   59.1565 C.2     1  ZINC001347442583    0.5400
      3 C3        -11.2305   -3.1061   60.5602 C.3     1  ZINC001347442583   -0.1400
      4 C4        -10.2959   -1.8971   60.6359 C.3     1  ZINC001347442583   -0.1000
      5 C5        -11.0374   -0.7182   61.2693 C.3     1  ZINC001347442583   -0.1100
      6 C6        -10.0631    0.4423   61.4817 C.3     1  ZINC001347442583   -0.0800
      7 C7         -9.5264    0.3965   62.8892 C.ar    1  ZINC001347442583   -0.0800
      8 C8         -8.2637   -0.1111   63.1313 C.ar    1  ZINC001347442583   -0.1200
      9 C9         -7.7716   -0.1531   64.4224 C.ar    1  ZINC001347442583   -0.1200
     10 C10        -8.5419    0.3130   65.4713 C.ar    1  ZINC001347442583   -0.1300
     11 C11        -9.8042    0.8216   65.2290 C.ar    1  ZINC001347442583   -0.1200
     12 C12       -10.2947    0.8676   63.9374 C.ar    1  ZINC001347442583   -0.1200
     13 N13       -12.3109   -3.4891   58.3683 N.am    1  ZINC001347442583   -0.6300
     14 C14       -13.6253   -2.8114   58.6328 C.3     1  ZINC001347442583    0.1200
     15 H15       -13.7457   -2.3786   59.6258 H       1  ZINC001347442583    0.1200
     16 C16       -14.6264   -3.9492   58.2693 C.3     1  ZINC001347442583   -0.1300
     17 C17       -13.9089   -4.7086   57.1262 C.3     1  ZINC001347442583   -0.1300
     18 C18       -12.5695   -3.9205   56.9526 C.3     1  ZINC001347442583    0.1200
     19 H19       -11.7612   -4.4679   56.4678 H       1  ZINC001347442583    0.1200
     20 C20       -12.9746   -2.5780   56.2729 C.3     1  ZINC001347442583    0.1300
     21 H21       -13.6491   -2.7593   55.4361 H       1  ZINC001347442583    0.1100
     22 N22       -11.7865   -1.8461   55.8267 N.am    1  ZINC001347442583   -0.7200
     23 C23       -11.8749   -0.9815   54.7967 C.2     1  ZINC001347442583    0.5300
     24 O24       -12.9384   -0.8080   54.2402 O.2     1  ZINC001347442583   -0.5300
     25 C25       -10.6522   -0.2300   54.3367 C.3     1  ZINC001347442583   -0.1500
     26 H26       -10.6383    0.7769   54.7535 H       1  ZINC001347442583    0.1100
     27 C27        -9.3568   -1.0008   54.7104 C.3     1  ZINC001347442583   -0.1400
     28 C28        -8.3936   -0.5135   53.5987 C.3     1  ZINC001347442583    0.0500
     29 O29        -9.2093   -0.3914   52.4228 O.3     1  ZINC001347442583   -0.3800
     30 C30       -10.5811   -0.1877   52.7951 C.3     1  ZINC001347442583    0.0700
     31 C31       -13.6845   -1.8015   57.4474 C.3     1  ZINC001347442583   -0.1400
     32 H32       -12.2414   -2.8014   60.8311 H       1  ZINC001347442583    0.0900
     33 H33       -10.8856   -3.8756   61.2509 H       1  ZINC001347442583    0.0900
     34 H34        -9.4259   -2.1478   61.2430 H       1  ZINC001347442583    0.0700
     35 H35        -9.9717   -1.6251   59.6315 H       1  ZINC001347442583    0.0700
     36 H36       -11.8440   -0.3993   60.6093 H       1  ZINC001347442583    0.0600
     37 H37       -11.4529   -1.0239   62.2296 H       1  ZINC001347442583    0.0600
     38 H38        -9.2375    0.3576   60.7751 H       1  ZINC001347442583    0.0700
     39 H39       -10.5829    1.3870   61.3217 H       1  ZINC001347442583    0.0700
     40 H40        -7.6619   -0.4754   62.3119 H       1  ZINC001347442583    0.1200
     41 H41        -6.7853   -0.5505   64.6116 H       1  ZINC001347442583    0.1200
     42 H42        -8.1577    0.2796   66.4800 H       1  ZINC001347442583    0.1200
     43 H43       -10.4063    1.1856   66.0485 H       1  ZINC001347442583    0.1200
     44 H44       -11.2810    1.2650   63.7481 H       1  ZINC001347442583    0.1200
     45 H45       -14.7884   -4.6058   59.1241 H       1  ZINC001347442583    0.0700
     46 H46       -15.5709   -3.5324   57.9196 H       1  ZINC001347442583    0.0800
     47 H47       -13.7150   -5.7418   57.4142 H       1  ZINC001347442583    0.0800
     48 H48       -14.4975   -4.6683   56.2098 H       1  ZINC001347442583    0.0800
     49 H49       -10.9362   -1.9840   56.2727 H       1  ZINC001347442583    0.4000
     50 H50        -8.9971   -0.7095   55.6972 H       1  ZINC001347442583    0.0900
     51 H51        -9.5102   -2.0784   54.6525 H       1  ZINC001347442583    0.0900
     52 H52        -7.9667    0.4534   53.8652 H       1  ZINC001347442583    0.0700
     53 H53        -7.6024   -1.2454   53.4361 H       1  ZINC001347442583    0.0900
     54 H54       -11.1995   -0.9820   52.3771 H       1  ZINC001347442583    0.0700
     55 H55       -10.9235    0.7804   52.4298 H       1  ZINC001347442583    0.0800
     56 H56       -14.7250   -1.5943   57.1970 H       1  ZINC001347442583    0.0900
     57 H57       -13.1518   -0.8780   57.6743 H       1  ZINC001347442583    0.0800
@<TRIPOS>BOND
     1     1     2    2
     2     2     3    1
     3     2    13   am
     4     3     4    1
     5     3    32    1
     6     3    33    1
     7     4     5    1
     8     4    34    1
     9     4    35    1
    10     5     6    1
    11     5    36    1
    12     5    37    1
    13     6     7    1
    14     6    38    1
    15     6    39    1
    16     7    12   ar
    17     7     8   ar
    18     8     9   ar
    19     8    40    1
    20     9    10   ar
    21     9    41    1
    22    10    11   ar
    23    10    42    1
    24    11    12   ar
    25    11    43    1
    26    12    44    1
    27    13    18    1
    28    13    14    1
    29    14    15    1
    30    14    31    1
    31    14    16    1
    32    16    17    1
    33    16    45    1
    34    16    46    1
    35    17    18    1
    36    17    47    1
    37    17    48    1
    38    18    19    1
    39    18    20    1
    40    20    21    1
    41    20    22    1
    42    20    31    1
    43    22    23   am
    44    22    49    1
    45    23    24    2
    46    23    25    1
    47    25    26    1
    48    25    30    1
    49    25    27    1
    50    27    28    1
    51    27    50    1
    52    27    51    1
    53    28    29    1
    54    28    52    1
    55    28    53    1
    56    29    30    1
    57    30    54    1
    58    30    55    1
    59    31    56    1
    60    31    57    1
@<TRIPOS>SUBSTRUCTURE
     1 ZINC001347442583        1 TEMP              0 ****  ****    0 ROOT


##########                                Name:    ZINC000745364361
##########                DOCK_Rotatable_Bonds:                   8
##########                         Heavy_Atoms:                  29
##########                    Molecular_Weight:             398.434
##########                DOCK_Rotatable_Bonds:                   8
##########                       Formal_Charge:          0.00999923
##########                     HBond_Acceptors:                   7
##########                        HBond_Donors:                   1
##########                         Heavy_Atoms:                  29
##########                          Grid_Score:          -33.536301
##########                     Grid_vdw_energy:          -32.758522
##########                      Grid_es_energy:           -0.777779
##########           Internal_energy_repulsive:            9.041469

@<TRIPOS>MOLECULE
ZINC000745364361
 52 54 1 0 0
SMALL
USER_CHARGES


@<TRIPOS>ATOM
      1 C1        -11.7900    0.0328   54.8304 C.3     1  ZINC000745364361   -0.1700
      2 C2        -10.6088   -0.9328   54.9457 C.3     1  ZINC000745364361    0.0700
      3 H3        -10.8663   -1.8801   54.4720 H       1  ZINC000745364361    0.1100
      4 O4        -10.3039   -1.1595   56.3471 O.3     1  ZINC000745364361   -0.3200
      5 C5        -10.9327   -2.1808   56.9500 C.2     1  ZINC000745364361    0.4700
      6 O6        -10.8080   -3.3039   56.5225 O.2     1  ZINC000745364361   -0.4900
      7 C7        -11.7939   -1.9264   58.1602 C.3     1  ZINC000745364361   -0.0400
      8 H8        -12.4141   -1.0471   57.9866 H       1  ZINC000745364361    0.1200
      9 C9        -12.6899   -3.1406   58.4128 C.3     1  ZINC000745364361   -0.1400
     10 C10       -10.9151   -1.6920   59.3618 C.ar    1  ZINC000745364361   -0.0500
     11 C11        -9.6665   -2.2810   59.4301 C.ar    1  ZINC000745364361   -0.1000
     12 C12        -8.8592   -2.0668   60.5320 C.ar    1  ZINC000745364361   -0.0900
     13 C13        -9.2997   -1.2634   61.5662 C.ar    1  ZINC000745364361   -0.1500
     14 C14       -10.5503   -0.6724   61.4987 C.ar    1  ZINC000745364361    0.1000
     15 F15       -10.9821    0.1132   62.5094 F       1  ZINC000745364361   -0.1400
     16 C16       -11.3556   -0.8834   60.3927 C.ar    1  ZINC000745364361   -0.1400
     17 C17        -9.4056   -0.3388   54.2596 C.2     1  ZINC000745364361    0.5200
     18 O18        -8.5220    0.1696   54.9171 O.2     1  ZINC000745364361   -0.5000
     19 N19        -9.3113   -0.3724   52.9156 N.am    1  ZINC000745364361   -0.6700
     20 C20        -8.1930    0.1798   52.2780 C.ar    1  ZINC000745364361    0.1200
     21 C21        -7.9378    1.5411   52.3791 C.ar    1  ZINC000745364361   -0.1100
     22 C22        -6.8357    2.0852   51.7506 C.ar    1  ZINC000745364361   -0.1400
     23 C23        -5.9820    1.2713   51.0177 C.ar    1  ZINC000745364361    0.1500
     24 N24        -4.8639    1.8235   50.3797 N.am    1  ZINC000745364361   -0.5600
     25 C25        -3.4853    1.6950   50.8664 C.3     1  ZINC000745364361    0.0900
     26 C26        -2.5878    2.0584   49.6628 C.3     1  ZINC000745364361   -0.1300
     27 C27        -3.5239    2.9692   48.8351 C.3     1  ZINC000745364361   -0.1500
     28 C28        -4.9152    2.5344   49.2401 C.2     1  ZINC000745364361    0.5200
     29 O29        -5.9300    2.7955   48.6292 O.2     1  ZINC000745364361   -0.5100
     30 C30        -6.2364   -0.0902   50.9179 C.ar    1  ZINC000745364361   -0.1400
     31 C31        -7.3364   -0.6350   51.5495 C.ar    1  ZINC000745364361   -0.0900
     32 H32       -12.6602   -0.3968   55.3266 H       1  ZINC000745364361    0.0800
     33 H33       -11.5324    0.9801   55.3041 H       1  ZINC000745364361    0.0800
     34 H34       -12.0188    0.2029   53.7784 H       1  ZINC000745364361    0.0800
     35 H35       -12.0697   -4.0200   58.5866 H       1  ZINC000745364361    0.0700
     36 H36       -13.3128   -2.9567   59.2882 H       1  ZINC000745364361    0.0800
     37 H37       -13.3255   -3.3102   57.5438 H       1  ZINC000745364361    0.0800
     38 H38        -9.3215   -2.9094   58.6224 H       1  ZINC000745364361    0.1300
     39 H39        -7.8839   -2.5279   60.5844 H       1  ZINC000745364361    0.1400
     40 H40        -8.6693   -1.0968   62.4271 H       1  ZINC000745364361    0.1400
     41 H41       -12.3309   -0.4226   60.3388 H       1  ZINC000745364361    0.1400
     42 H42       -10.0179   -0.7788   52.3899 H       1  ZINC000745364361    0.4100
     43 H43        -8.6017    2.1742   52.9490 H       1  ZINC000745364361    0.1300
     44 H44        -6.6376    3.1440   51.8287 H       1  ZINC000745364361    0.1600
     45 H45        -3.3100    2.3870   51.6901 H       1  ZINC000745364361    0.0800
     46 H46        -3.2919    0.6708   51.1855 H       1  ZINC000745364361    0.0900
     47 H47        -1.7011    2.6028   49.9877 H       1  ZINC000745364361    0.1000
     48 H48        -2.3118    1.1673   49.0989 H       1  ZINC000745364361    0.0900
     49 H49        -3.3586    4.0165   49.0878 H       1  ZINC000745364361    0.1100
     50 H50        -3.3712    2.8046   47.7685 H       1  ZINC000745364361    0.1100
     51 H51        -5.5723   -0.7233   50.3481 H       1  ZINC000745364361    0.1300
     52 H52        -7.5343   -1.6939   51.4717 H       1  ZINC000745364361    0.1400
@<TRIPOS>BOND
     1     1     2    1
     2     1    32    1
     3     1    33    1
     4     1    34    1
     5     2     3    1
     6     2     4    1
     7     2    17    1
     8     4     5    1
     9     5     6    2
    10     5     7    1
    11     7     8    1
    12     7     9    1
    13     7    10    1
    14     9    35    1
    15     9    36    1
    16     9    37    1
    17    10    16   ar
    18    10    11   ar
    19    11    12   ar
    20    11    38    1
    21    12    13   ar
    22    12    39    1
    23    13    14   ar
    24    13    40    1
    25    14    15    1
    26    14    16   ar
    27    16    41    1
    28    17    18    2
    29    17    19   am
    30    19    20    1
    31    19    42    1
    32    20    31   ar
    33    20    21   ar
    34    21    22   ar
    35    21    43    1
    36    22    23   ar
    37    22    44    1
    38    23    24    1
    39    23    30   ar
    40    24    28   am
    41    24    25    1
    42    25    26    1
    43    25    45    1
    44    25    46    1
    45    26    27    1
    46    26    47    1
    47    26    48    1
    48    27    28    1
    49    27    49    1
    50    27    50    1
    51    28    29    2
    52    30    31   ar
    53    30    51    1
    54    31    52    1
@<TRIPOS>SUBSTRUCTURE
     1 ZINC000745364361        1 TEMP              0 ****  ****    0 ROOT


##########                                Name:    ZINC001169875900
##########                DOCK_Rotatable_Bonds:                   9
##########                         Heavy_Atoms:                  24
##########                    Molecular_Weight:             329.399
##########                DOCK_Rotatable_Bonds:                   9
##########                       Formal_Charge:          -0.0500002
##########                     HBond_Acceptors:                   6
##########                        HBond_Donors:                   1
##########                         Heavy_Atoms:                  24
##########                          Grid_Score:          -33.520115
##########                     Grid_vdw_energy:          -32.756012
##########                      Grid_es_energy:           -0.764104
##########           Internal_energy_repulsive:           11.318530

@<TRIPOS>MOLECULE
ZINC001169875900
 47 48 1 0 0
SMALL
USER_CHARGES


@<TRIPOS>ATOM
      1 C1         -7.9621    0.9122   56.3439 C.3     1  ZINC001169875900   -0.1500
      2 C2         -7.8109    1.8231   55.1239 C.3     1  ZINC001169875900   -0.1300
      3 C3         -9.1786    2.0321   54.4708 C.3     1  ZINC001169875900    0.0700
      4 O4         -9.2721    1.2275   53.2936 O.3     1  ZINC001169875900   -0.3100
      5 C5         -8.4126    1.5130   52.2820 C.ar    1  ZINC001169875900    0.2700
      6 N6         -8.2469    2.7676   51.9000 N.ar    1  ZINC001169875900   -0.5000
      7 C7         -7.4271    3.0915   50.9179 C.ar    1  ZINC001169875900    0.0600
      8 C8         -6.7002    2.1170   50.2511 C.ar    1  ZINC001169875900    0.1400
      9 N9         -5.8328    2.4676   49.2098 N.pl3   1  ZINC001169875900   -0.7400
     10 C10        -4.6093    3.2201   49.4979 C.3     1  ZINC001169875900    0.1800
     11 C11        -3.4084    2.3797   49.1476 C.ar    1  ZINC001169875900    0.1000
     12 C12        -2.7069    1.7367   50.1550 C.ar    1  ZINC001169875900   -0.1200
     13 C13        -1.6029    0.9646   49.8283 C.ar    1  ZINC001169875900   -0.0800
     14 C14        -1.2382    0.8633   48.4952 C.ar    1  ZINC001169875900   -0.1000
     15 C15        -1.9899    1.5373   47.5348 C.ar    1  ZINC001169875900    0.0900
     16 C16        -1.6134    1.4393   46.1060 C.2     1  ZINC001169875900    0.5200
     17 O17        -2.2394    2.0579   45.2694 O.2     1  ZINC001169875900   -0.5000
     18 O18        -0.5766    0.6642   45.7345 O.3     1  ZINC001169875900   -0.3300
     19 C19        -0.3426    0.5150   44.3093 C.3     1  ZINC001169875900    0.0600
     20 C20        -1.4716   -0.3122   43.6910 C.3     1  ZINC001169875900   -0.1500
     21 N21        -3.0438    2.2623   47.8896 N.ar    1  ZINC001169875900   -0.4200
     22 C22        -6.8448    0.7836   50.6306 C.ar    1  ZINC001169875900   -0.1200
     23 C23        -7.7136    0.4838   51.6645 C.ar    1  ZINC001169875900   -0.1000
     24 C24        -7.9041   -0.9429   52.1113 C.3     1  ZINC001169875900   -0.1000
     25 H25        -8.3661   -0.0505   56.0307 H       1  ZINC001169875900    0.0600
     26 H26        -6.9877    0.7633   56.8092 H       1  ZINC001169875900    0.0600
     27 H27        -8.6402    1.3749   57.0609 H       1  ZINC001169875900    0.0600
     28 H28        -7.1327    1.3603   54.4069 H       1  ZINC001169875900    0.0700
     29 H29        -7.4069    2.7858   55.4371 H       1  ZINC001169875900    0.0700
     30 H30        -9.2969    3.0822   54.2035 H       1  ZINC001169875900    0.0600
     31 H31        -9.9632    1.7446   55.1707 H       1  ZINC001169875900    0.0600
     32 H32        -7.3216    4.1271   50.6301 H       1  ZINC001169875900    0.1500
     33 H33        -6.0418    2.2123   48.2977 H       1  ZINC001169875900    0.4000
     34 H34        -4.5975    4.1352   48.9057 H       1  ZINC001169875900    0.0800
     35 H35        -4.5791    3.4729   50.5577 H       1  ZINC001169875900    0.0800
     36 H36        -3.0172    1.8364   51.1847 H       1  ZINC001169875900    0.1500
     37 H37        -1.0400    0.4535   50.5953 H       1  ZINC001169875900    0.1500
     38 H38        -0.3833    0.2706   48.2047 H       1  ZINC001169875900    0.1500
     39 H39        -0.3145    1.4988   43.8409 H       1  ZINC001169875900    0.0700
     40 H40         0.6090    0.0086   44.1484 H       1  ZINC001169875900    0.0700
     41 H41        -1.4997   -1.2959   44.1595 H       1  ZINC001169875900    0.0700
     42 H42        -2.4232    0.1943   43.8519 H       1  ZINC001169875900    0.0700
     43 H43        -1.2958   -0.4241   42.6211 H       1  ZINC001169875900    0.0800
     44 H44        -6.2918    0.0030   50.1293 H       1  ZINC001169875900    0.1400
     45 H45        -7.1835   -1.1775   52.8948 H       1  ZINC001169875900    0.0700
     46 H46        -7.7511   -1.6122   51.2647 H       1  ZINC001169875900    0.0700
     47 H47        -8.9154   -1.0707   52.4975 H       1  ZINC001169875900    0.0700
@<TRIPOS>BOND
     1     1     2    1
     2     1    25    1
     3     1    26    1
     4     1    27    1
     5     2     3    1
     6     2    28    1
     7     2    29    1
     8     3     4    1
     9     3    30    1
    10     3    31    1
    11     4     5    1
    12     5    23   ar
    13     5     6   ar
    14     6     7   ar
    15     7     8   ar
    16     7    32    1
    17     8     9    1
    18     8    22   ar
    19     9    10    1
    20     9    33    1
    21    10    11    1
    22    10    34    1
    23    10    35    1
    24    11    21   ar
    25    11    12   ar
    26    12    13   ar
    27    12    36    1
    28    13    14   ar
    29    13    37    1
    30    14    15   ar
    31    14    38    1
    32    15    16    1
    33    15    21   ar
    34    16    17    2
    35    16    18    1
    36    18    19    1
    37    19    20    1
    38    19    39    1
    39    19    40    1
    40    20    41    1
    41    20    42    1
    42    20    43    1
    43    22    23   ar
    44    22    44    1
    45    23    24    1
    46    24    45    1
    47    24    46    1
    48    24    47    1
@<TRIPOS>SUBSTRUCTURE
     1 ZINC001169875900        1 TEMP              0 ****  ****    0 ROOT


##########                                Name:     oleObject15.pdb
##########                DOCK_Rotatable_Bonds:                   9
##########                         Heavy_Atoms:                  29
##########                    Molecular_Weight:             395.545
##########                DOCK_Rotatable_Bonds:                   9
##########                       Formal_Charge:         0.000700183
##########                     HBond_Acceptors:                   5
##########                        HBond_Donors:                   1
##########                         Heavy_Atoms:                  29
##########                          Grid_Score:          -33.514492
##########                     Grid_vdw_energy:          -33.909805
##########                      Grid_es_energy:            0.395315
##########           Internal_energy_repulsive:            9.484329

@<TRIPOS>MOLECULE
oleObject15.pdb
 62 64 1 0 0
SMALL
NO_CHARGES


@<TRIPOS>ATOM
      1 O          -0.7538    1.1546   46.9960 O.3     1  UNL        -0.3745
      2 C          -1.7229    2.1217   47.4598 C.3     1  UNL         0.0600
      3 C          -2.0491    1.8210   48.9411 C.3     1  UNL         0.0217
      4 N          -3.1751    2.6079   49.4962 N.4     1  UNL        -0.3010
      5 C          -4.5079    2.2394   48.9659 C.3     1  UNL        -0.0010
      6 C          -5.6139    3.1835   49.4855 C.3     1  UNL        -0.0289
      7 C          -5.6383    3.2884   51.0294 C.3     1  UNL         0.0382
      8 C          -4.2150    3.5876   51.5641 C.3     1  UNL        -0.0289
      9 C          -3.1291    2.6586   50.9728 C.3     1  UNL        -0.0010
     10 C          -6.2593    2.0271   51.6794 C.2     1  UNL         0.2156
     11 O          -6.3049    0.9585   51.0974 O.2     1  UNL        -0.2774
     12 N          -6.7417    2.0871   52.9806 N.am    1  UNL        -0.3025
     13 C          -7.3618    1.0007   53.7623 C.3     1  UNL         0.0900
     14 C          -7.3382    1.2620   55.2672 C.ar    1  UNL        -0.0217
     15 C          -6.6141    2.3437   55.8080 C.ar    1  UNL        -0.0568
     16 C          -6.5929    2.5622   57.1951 C.ar    1  UNL        -0.0619
     17 C          -7.2979    1.7035   58.0528 C.ar    1  UNL        -0.0622
     18 C          -8.0263    0.6277   57.5216 C.ar    1  UNL        -0.0619
     19 C          -8.0476    0.4095   56.1344 C.ar    1  UNL        -0.0568
     20 C          -8.7814    0.7040   53.2880 C.ar    1  UNL         0.0652
     21 C          -9.0736   -0.4103   52.4745 C.ar    1  UNL        -0.0383
     22 C         -10.3987   -0.6253   52.0631 C.ar    1  UNL        -0.0588
     23 C         -11.3857    0.2821   52.4781 C.ar    1  UNL        -0.0438
     24 C         -11.0075    1.3673   53.2870 C.ar    1  UNL         0.0272
     25 N          -9.7353    1.5754   53.6830 N.ar    1  UNL        -0.2590
     26 C          -0.3648    1.1442   45.6019 C.3     1  UNL         0.0599
     27 C          -0.0687    2.5913   45.1340 C.3     1  UNL        -0.0364
     28 C           0.9279    0.2987   45.5533 C.3     1  UNL        -0.0364
     29 C          -1.4709    0.4774   44.7464 C.3     1  UNL        -0.0364
     30 H          -2.6468    2.0477   46.8735 H       1  UNL         0.0581
     31 H          -1.3428    3.1449   47.3681 H       1  UNL         0.0581
     32 H          -1.1444    2.0247   49.5281 H       1  UNL         0.0455
     33 H          -2.2677    0.7502   49.0403 H       1  UNL         0.0455
     34 H          -4.7475    1.2064   49.2492 H       1  UNL         0.0431
     35 H          -4.5135    2.2950   47.8711 H       1  UNL         0.0431
     36 H          -6.5884    2.8503   49.1103 H       1  UNL         0.0288
     37 H          -5.4422    4.1831   49.0652 H       1  UNL         0.0288
     38 H          -6.2460    4.1596   51.2877 H       1  UNL         0.0402
     39 H          -4.2036    3.5251   52.6597 H       1  UNL         0.0288
     40 H          -3.9556    4.6230   51.3073 H       1  UNL         0.0288
     41 H          -3.2534    1.6474   51.3798 H       1  UNL         0.0431
     42 H          -2.1467    3.0229   51.3000 H       1  UNL         0.0431
     43 H          -6.5616    2.9528   53.4727 H       1  UNL         0.1504
     44 H          -6.7739    0.0952   53.5650 H       1  UNL         0.0624
     45 H          -6.0581    3.0112   55.1561 H       1  UNL         0.0626
     46 H          -6.0286    3.3952   57.6045 H       1  UNL         0.0623
     47 H          -7.2811    1.8721   59.1258 H       1  UNL         0.0623
     48 H          -8.5746   -0.0364   58.1838 H       1  UNL         0.0623
     49 H          -8.6154   -0.4253   55.7332 H       1  UNL         0.0626
     50 H          -8.2900   -1.0961   52.1667 H       1  UNL         0.0643
     51 H         -10.6541   -1.4750   51.4366 H       1  UNL         0.0624
     52 H         -12.4215    0.1492   52.1799 H       1  UNL         0.0639
     53 H         -11.7451    2.0927   53.6282 H       1  UNL         0.0840
     54 H           0.6172    3.0930   45.8286 H       1  UNL         0.0260
     55 H          -0.9855    3.1893   45.0653 H       1  UNL         0.0260
     56 H           0.3972    2.5897   44.1406 H       1  UNL         0.0260
     57 H           1.7095    0.7435   46.1827 H       1  UNL         0.0260
     58 H           1.3158    0.2295   44.5291 H       1  UNL         0.0260
     59 H           0.7419   -0.7207   45.9152 H       1  UNL         0.0260
     60 H          -2.3737    1.0988   44.7008 H       1  UNL         0.0260
     61 H          -1.7475   -0.5011   45.1597 H       1  UNL         0.0260
     62 H          -1.1245    0.3236   43.7166 H       1  UNL         0.0260
@<TRIPOS>BOND
     1     1     2    1
     2     1    26    1
     3     2     3    1
     4     2    30    1
     5     2    31    1
     6     3     4    1
     7     3    32    1
     8     3    33    1
     9     4     5    1
    10     4     9    1
    11     5     6    1
    12     5    34    1
    13     5    35    1
    14     6     7    1
    15     6    36    1
    16     6    37    1
    17     7     8    1
    18     7    10    1
    19     7    38    1
    20     8     9    1
    21     8    39    1
    22     8    40    1
    23     9    41    1
    24     9    42    1
    25    10    11    2
    26    10    12   am
    27    12    13    1
    28    12    43    1
    29    13    14    1
    30    13    20    1
    31    13    44    1
    32    14    15   ar
    33    14    19   ar
    34    15    16   ar
    35    15    45    1
    36    16    17   ar
    37    16    46    1
    38    17    18   ar
    39    17    47    1
    40    18    19   ar
    41    18    48    1
    42    19    49    1
    43    20    21   ar
    44    20    25   ar
    45    21    22   ar
    46    21    50    1
    47    22    23   ar
    48    22    51    1
    49    23    24   ar
    50    23    52    1
    51    24    25   ar
    52    24    53    1
    53    26    27    1
    54    26    28    1
    55    26    29    1
    56    27    54    1
    57    27    55    1
    58    27    56    1
    59    28    57    1
    60    28    58    1
    61    28    59    1
    62    29    60    1
    63    29    61    1
    64    29    62    1
@<TRIPOS>SUBSTRUCTURE
     1 UNL         1 TEMP              0 ****  ****    0 ROOT


##########                                Name:    ZINC001191196975
##########                DOCK_Rotatable_Bonds:                  14
##########                         Heavy_Atoms:                  24
##########                    Molecular_Weight:             339.438
##########                DOCK_Rotatable_Bonds:                  14
##########                       Formal_Charge:          0.00999969
##########                     HBond_Acceptors:                   8
##########                        HBond_Donors:                   4
##########                         Heavy_Atoms:                  24
##########                          Grid_Score:          -33.470814
##########                     Grid_vdw_energy:          -34.014652
##########                      Grid_es_energy:            0.543838
##########           Internal_energy_repulsive:           11.739820

@<TRIPOS>MOLECULE
ZINC001191196975
 53 53 1 0 0
SMALL
USER_CHARGES


@<TRIPOS>ATOM
      1 C1         -7.7233    0.1487   65.9506 C.2     1  ZINC001191196975   -0.1600
      2 C2         -8.4234    0.4346   64.8811 C.2     1  ZINC001191196975   -0.1800
      3 C3         -8.2956   -0.4196   63.6461 C.3     1  ZINC001191196975    0.1500
      4 N4         -9.5405   -0.3550   62.8765 N.am    1  ZINC001191196975   -0.7300
      5 C5         -9.5622   -0.7690   61.5942 C.2     1  ZINC001191196975    0.5100
      6 O6         -8.5515   -1.1964   61.0777 O.2     1  ZINC001191196975   -0.5200
      7 C7        -10.8424   -0.7008   60.8020 C.3     1  ZINC001191196975    0.0300
      8 N8        -10.9631   -1.9002   59.9624 N.3     1  ZINC001191196975   -0.5100
      9 C9        -12.1231   -2.7081   60.3621 C.3     1  ZINC001191196975    0.0200
     10 C10       -11.0365   -1.5416   58.5396 C.3     1  ZINC001191196975    0.0700
     11 H11       -11.8838   -0.8833   58.3480 H       1  ZINC001191196975    0.0600
     12 C12       -11.1052   -2.8104   57.6492 C.3     1  ZINC001191196975   -0.1200
     13 C13       -10.5014   -2.3282   56.3134 C.3     1  ZINC001191196975    0.1000
     14 N14        -9.6719   -1.1509   56.6089 N.am    1  ZINC001191196975   -0.6200
     15 C15        -8.9888   -0.4238   55.7028 C.2     1  ZINC001191196975    0.5300
     16 O16        -8.3331    0.5313   56.0616 O.2     1  ZINC001191196975   -0.5400
     17 C17        -9.0396   -0.7976   54.2438 C.3     1  ZINC001191196975   -0.1300
     18 C18        -7.9575   -0.0293   53.4824 C.3     1  ZINC001191196975   -0.1000
     19 C19        -7.8308   -0.5952   52.0667 C.3     1  ZINC001191196975   -0.1300
     20 C20        -6.7931    0.2133   51.2852 C.3     1  ZINC001191196975    0.1400
     21 N21        -7.3235    1.5504   51.0080 N.am    1  ZINC001191196975   -0.7500
     22 C22        -6.9520    2.2042   49.8896 C.2     1  ZINC001191196975    0.7000
     23 N23        -7.4412    3.4338   49.6338 N.am    1  ZINC001191196975   -0.8700
     24 O24        -6.1755    1.6848   49.1114 O.2     1  ZINC001191196975   -0.5900
     25 C25        -9.7122   -0.8959   58.0609 C.3     1  ZINC001191196975    0.1100
     26 H26        -7.0543   -0.6992   65.9474 H       1  ZINC001191196975    0.1000
     27 H27        -7.8116    0.7635   66.8341 H       1  ZINC001191196975    0.1000
     28 H28        -9.0924    1.2825   64.8842 H       1  ZINC001191196975    0.1200
     29 H29        -7.4710   -0.0531   63.0346 H       1  ZINC001191196975    0.0800
     30 H30        -8.1013   -1.4519   63.9370 H       1  ZINC001191196975    0.0700
     31 H31       -10.3490   -0.0142   63.2900 H       1  ZINC001191196975    0.4000
     32 H32       -11.6901   -0.6488   61.4852 H       1  ZINC001191196975    0.0700
     33 H33       -10.8312    0.1863   60.1688 H       1  ZINC001191196975    0.1100
     34 H34       -13.0171   -2.0846   60.3633 H       1  ZINC001191196975    0.0200
     35 H35       -12.2539   -3.5294   59.6576 H       1  ZINC001191196975    0.0700
     36 H36       -11.9589   -3.1099   61.3620 H       1  ZINC001191196975    0.0900
     37 H37       -10.5051   -3.6141   58.0759 H       1  ZINC001191196975    0.0900
     38 H38       -12.1383   -3.1300   57.5124 H       1  ZINC001191196975    0.0800
     39 H39        -9.8858   -3.1159   55.8791 H       1  ZINC001191196975    0.0700
     40 H40       -11.2995   -2.0555   55.6228 H       1  ZINC001191196975    0.0700
     41 H41        -8.8680   -1.8687   54.1370 H       1  ZINC001191196975    0.0900
     42 H42       -10.0189   -0.5443   53.8378 H       1  ZINC001191196975    0.0900
     43 H43        -8.2297    1.0248   53.4293 H       1  ZINC001191196975    0.0800
     44 H44        -7.0048   -0.1328   54.0018 H       1  ZINC001191196975    0.0800
     45 H45        -7.5153   -1.6373   52.1189 H       1  ZINC001191196975    0.0700
     46 H46        -8.7951   -0.5324   51.5625 H       1  ZINC001191196975    0.0700
     47 H47        -5.8805    0.2994   51.8748 H       1  ZINC001191196975    0.0700
     48 H48        -6.5719   -0.2920   50.3450 H       1  ZINC001191196975    0.0700
     49 H49        -7.9421    1.9653   51.6295 H       1  ZINC001191196975    0.4000
     50 H50        -7.1747    3.9039   48.8282 H       1  ZINC001191196975    0.4000
     51 H51        -8.0597    3.8485   50.2554 H       1  ZINC001191196975    0.4200
     52 H52        -9.7189    0.1762   58.2578 H       1  ZINC001191196975    0.0800
     53 H53        -8.8615   -1.3675   58.5526 H       1  ZINC001191196975    0.0800
@<TRIPOS>BOND
     1     1     2    2
     2     1    26    1
     3     1    27    1
     4     2     3    1
     5     2    28    1
     6     3     4    1
     7     3    29    1
     8     3    30    1
     9     4     5   am
    10     4    31    1
    11     5     6    2
    12     5     7    1
    13     7     8    1
    14     7    32    1
    15     7    33    1
    16     8     9    1
    17     8    10    1
    18     9    34    1
    19     9    35    1
    20     9    36    1
    21    10    11    1
    22    10    25    1
    23    10    12    1
    24    12    13    1
    25    12    37    1
    26    12    38    1
    27    13    14    1
    28    13    39    1
    29    13    40    1
    30    14    15   am
    31    14    25    1
    32    15    16    2
    33    15    17    1
    34    17    18    1
    35    17    41    1
    36    17    42    1
    37    18    19    1
    38    18    43    1
    39    18    44    1
    40    19    20    1
    41    19    45    1
    42    19    46    1
    43    20    21    1
    44    20    47    1
    45    20    48    1
    46    21    22   am
    47    21    49    1
    48    22    23   am
    49    22    24    2
    50    23    50    1
    51    23    51    1
    52    25    52    1
    53    25    53    1
@<TRIPOS>SUBSTRUCTURE
     1 ZINC001191196975        1 TEMP              0 ****  ****    0 ROOT


##########                                Name:    ZINC001004075025
##########                DOCK_Rotatable_Bonds:                   8
##########                         Heavy_Atoms:                  25
##########                    Molecular_Weight:              349.43
##########                DOCK_Rotatable_Bonds:                   8
##########                       Formal_Charge:         -0.00999999
##########                     HBond_Acceptors:                   7
##########                        HBond_Donors:                   1
##########                         Heavy_Atoms:                  25
##########                          Grid_Score:          -33.443928
##########                     Grid_vdw_energy:          -32.895554
##########                      Grid_es_energy:           -0.548375
##########           Internal_energy_repulsive:            6.454182

@<TRIPOS>MOLECULE
ZINC001004075025
 52 54 1 0 0
SMALL
USER_CHARGES


@<TRIPOS>ATOM
      1 C1         -8.8024   -0.3434   60.1281 C.3     1  ZINC001004075025   -0.1500
      2 C2         -8.6429    1.0664   59.5553 C.3     1  ZINC001004075025   -0.1200
      3 C3         -8.9978    1.0553   58.0671 C.3     1  ZINC001004075025    0.0800
      4 H4        -10.0175    0.6977   57.9246 H       1  ZINC001004075025    0.0700
      5 C5         -8.8364    2.4740   57.4653 C.3     1  ZINC001004075025   -0.1500
      6 C6         -8.5965    2.1339   55.9690 C.3     1  ZINC001004075025   -0.1400
      7 C7         -7.8070    0.8100   56.0565 C.3     1  ZINC001004075025    0.0700
      8 H8         -6.7402    1.0081   55.9536 H       1  ZINC001004075025    0.1100
      9 C9         -8.2600   -0.1282   54.9676 C.2     1  ZINC001004075025    0.5300
     10 O10        -9.1849   -0.8869   55.1668 O.2     1  ZINC001004075025   -0.5200
     11 N11        -7.6371   -0.1242   53.7724 N.am    1  ZINC001004075025   -0.6500
     12 C12        -6.5161    0.6088   53.1650 C.3     1  ZINC001004075025    0.1100
     13 C13        -7.1716    0.3696   51.7977 C.3     1  ZINC001004075025   -0.1400
     14 C14        -6.1846    0.0233   50.6810 C.3     1  ZINC001004075025    0.1300
     15 N15        -5.0989    1.0068   50.6666 N.am    1  ZINC001004075025   -0.7200
     16 C16        -5.1829    2.0919   49.8716 C.2     1  ZINC001004075025    0.6000
     17 O17        -6.1606    2.2552   49.1673 O.2     1  ZINC001004075025   -0.5300
     18 C18        -4.0896    3.0804   49.8559 C.2     1  ZINC001004075025   -0.2700
     19 C19        -2.8379    2.9641   49.3025 C.2     1  ZINC001004075025    0.0700
     20 C20        -2.2822    1.7712   48.5682 C.3     1  ZINC001004075025   -0.0300
     21 C21        -2.3867    2.0066   47.0600 C.3     1  ZINC001004075025   -0.1500
     22 C22        -0.8145    1.5737   48.9529 C.3     1  ZINC001004075025   -0.1500
     23 O23        -2.2115    4.1178   49.5446 O.3     1  ZINC001004075025    0.1000
     24 N24        -2.8898    4.9070   50.1553 N.2     1  ZINC001004075025   -0.3500
     25 C25        -4.0722    4.4375   50.4234 C.2     1  ZINC001004075025    0.0200
     26 C26        -7.7751   -0.8555   52.5040 C.3     1  ZINC001004075025    0.1100
     27 O27        -8.0738    0.2299   57.3403 O.3     1  ZINC001004075025   -0.3400
     28 H28        -8.5495   -0.3356   61.1884 H       1  ZINC001004075025    0.0600
     29 H29        -9.8342   -0.6717   60.0031 H       1  ZINC001004075025    0.0500
     30 H30        -8.1371   -1.0272   59.6010 H       1  ZINC001004075025    0.0600
     31 H31        -9.3082    1.7502   60.0825 H       1  ZINC001004075025    0.0800
     32 H32        -7.6110    1.3947   59.6804 H       1  ZINC001004075025    0.0700
     33 H33        -9.7459    3.0610   57.5937 H       1  ZINC001004075025    0.0900
     34 H34        -7.9759    2.9872   57.8944 H       1  ZINC001004075025    0.0900
     35 H35        -9.5425    1.9877   55.4478 H       1  ZINC001004075025    0.0800
     36 H36        -8.0017    2.9088   55.4856 H       1  ZINC001004075025    0.0900
     37 H37        -6.4792    1.6600   53.4507 H       1  ZINC001004075025    0.0900
     38 H38        -5.5558    0.1062   53.2798 H       1  ZINC001004075025    0.0900
     39 H39        -7.8972    1.1307   51.5107 H       1  ZINC001004075025    0.1100
     40 H40        -5.7723   -0.9705   50.8557 H       1  ZINC001004075025    0.0800
     41 H41        -6.7015    0.0387   49.7215 H       1  ZINC001004075025    0.0800
     42 H42        -4.3194    0.8770   51.2294 H       1  ZINC001004075025    0.4000
     43 H43        -2.8512    0.8813   48.8373 H       1  ZINC001004075025    0.1300
     44 H44        -1.8177    2.8964   46.7908 H       1  ZINC001004075025    0.0600
     45 H45        -1.9848    1.1437   46.5289 H       1  ZINC001004075025    0.0700
     46 H46        -3.4323    2.1472   46.7859 H       1  ZINC001004075025    0.0600
     47 H47        -0.2455    2.4635   48.6838 H       1  ZINC001004075025    0.0600
     48 H48        -0.7401    1.4060   50.0274 H       1  ZINC001004075025    0.0600
     49 H49        -0.4126    0.7109   48.4219 H       1  ZINC001004075025    0.0700
     50 H50        -4.8694    4.9353   50.9554 H       1  ZINC001004075025    0.2000
     51 H51        -7.1484   -1.7451   52.4414 H       1  ZINC001004075025    0.0900
     52 H52        -8.8115   -1.0491   52.2274 H       1  ZINC001004075025    0.0800
@<TRIPOS>BOND
     1     1     2    1
     2     1    28    1
     3     1    29    1
     4     1    30    1
     5     2     3    1
     6     2    31    1
     7     2    32    1
     8     3     4    1
     9     3    27    1
    10     3     5    1
    11     5     6    1
    12     5    33    1
    13     5    34    1
    14     6     7    1
    15     6    35    1
    16     6    36    1
    17     7     8    1
    18     7     9    1
    19     7    27    1
    20     9    10    2
    21     9    11   am
    22    11    26    1
    23    11    12    1
    24    12    13    1
    25    12    37    1
    26    12    38    1
    27    13    14    1
    28    13    26    1
    29    13    39    1
    30    14    15    1
    31    14    40    1
    32    14    41    1
    33    15    16   am
    34    15    42    1
    35    16    17    2
    36    16    18    1
    37    18    25    1
    38    18    19    2
    39    19    20    1
    40    19    23    1
    41    20    21    1
    42    20    22    1
    43    20    43    1
    44    21    44    1
    45    21    45    1
    46    21    46    1
    47    22    47    1
    48    22    48    1
    49    22    49    1
    50    23    24    1
    51    24    25    2
    52    25    50    1
    53    26    51    1
    54    26    52    1
@<TRIPOS>SUBSTRUCTURE
     1 ZINC001004075025        1 TEMP              0 ****  ****    0 ROOT


##########                                Name:    ZINC001090961577
##########                DOCK_Rotatable_Bonds:                   9
##########                         Heavy_Atoms:                  24
##########                    Molecular_Weight:             352.458
##########                DOCK_Rotatable_Bonds:                   9
##########                       Formal_Charge:                0.02
##########                     HBond_Acceptors:                   8
##########                        HBond_Donors:                   1
##########                         Heavy_Atoms:                  24
##########                          Grid_Score:          -33.422611
##########                     Grid_vdw_energy:          -32.031078
##########                      Grid_es_energy:           -1.391532
##########           Internal_energy_repulsive:           10.162240

@<TRIPOS>MOLECULE
ZINC001090961577
 48 49 1 0 0
SMALL
USER_CHARGES


@<TRIPOS>ATOM
      1 C1        -10.8242   -2.6962   56.0103 C.3     1  ZINC001090961577   -0.1400
      2 C2        -11.2754   -1.2345   56.0415 C.3     1  ZINC001090961577   -0.0900
      3 S3         -9.8218   -0.1515   55.9725 S.3     1  ZINC001090961577   -0.2700
      4 C4         -9.0853   -0.5589   54.3657 C.3     1  ZINC001090961577   -0.0700
      5 C5         -7.8414    0.3032   54.1415 C.3     1  ZINC001090961577   -0.1200
      6 C6         -7.2918    0.0433   52.7626 C.2     1  ZINC001090961577    0.5400
      7 O7         -7.4424   -1.0430   52.2446 O.2     1  ZINC001090961577   -0.5300
      8 N8         -6.6328    1.0178   52.1050 N.am    1  ZINC001090961577   -0.6200
      9 C9         -6.3796    2.3743   52.6128 C.3     1  ZINC001090961577    0.1100
     10 C10        -5.5718    3.1243   51.5328 C.3     1  ZINC001090961577   -0.1100
     11 H11        -6.2314    3.7209   50.9026 H       1  ZINC001090961577    0.0900
     12 C12        -4.4974    4.0046   52.1744 C.3     1  ZINC001090961577   -0.1400
     13 C13        -4.9279    1.9719   50.7174 C.3     1  ZINC001090961577    0.1500
     14 H14        -4.0213    1.6095   51.2021 H       1  ZINC001090961577    0.1200
     15 N15        -4.6522    2.3925   49.3414 N.pl3   1  ZINC001090961577   -0.6700
     16 C16        -3.5056    1.9642   48.7062 C.ar    1  ZINC001090961577    0.5900
     17 N17        -3.3615    2.2009   47.4087 N.ar    1  ZINC001090961577   -0.5700
     18 C18        -2.2795    1.8075   46.7640 C.ar    1  ZINC001090961577    0.2700
     19 C19        -1.2757    1.1311   47.4707 C.ar    1  ZINC001090961577   -0.3000
     20 C20        -0.0497    0.6735   46.7917 C.2     1  ZINC001090961577    0.5300
     21 O21         0.9641    1.3404   46.8537 O.2     1  ZINC001090961577   -0.5100
     22 O22        -0.0534   -0.4842   46.1023 O.3     1  ZINC001090961577   -0.3600
     23 C23        -1.3156   -0.8981   45.5157 C.3     1  ZINC001090961577    0.0400
     24 C24        -1.4678    0.9014   48.8400 C.ar    1  ZINC001090961577    0.2600
     25 N25        -2.5764    1.3320   49.4115 N.ar    1  ZINC001090961577   -0.5700
     26 C26        -6.0408    0.8983   50.7601 C.3     1  ZINC001090961577    0.0900
     27 H27       -11.6976   -3.3470   56.0518 H       1  ZINC001090961577    0.0700
     28 H28       -10.2726   -2.8866   55.0897 H       1  ZINC001090961577    0.0700
     29 H29       -10.1810   -2.8963   56.8672 H       1  ZINC001090961577    0.0700
     30 H30       -11.9186   -1.0344   55.1846 H       1  ZINC001090961577    0.0800
     31 H31       -11.8270   -1.0442   56.9622 H       1  ZINC001090961577    0.0800
     32 H32        -8.8049   -1.6121   54.3510 H       1  ZINC001090961577    0.0900
     33 H33        -9.8094   -0.3646   53.5743 H       1  ZINC001090961577    0.0900
     34 H34        -8.1075    1.3562   54.2340 H       1  ZINC001090961577    0.1000
     35 H35        -7.0864    0.0526   54.8867 H       1  ZINC001090961577    0.1000
     36 H36        -7.3254    2.8860   52.7904 H       1  ZINC001090961577    0.0800
     37 H37        -5.8042    2.3226   53.5371 H       1  ZINC001090961577    0.0800
     38 H38        -3.8315    3.3854   52.7754 H       1  ZINC001090961577    0.0600
     39 H39        -3.9232    4.5041   51.3939 H       1  ZINC001090961577    0.0600
     40 H40        -4.9720    4.7515   52.8107 H       1  ZINC001090961577    0.0700
     41 H41        -5.2762    2.9722   48.8772 H       1  ZINC001090961577    0.4200
     42 H42        -2.1693    2.0034   45.7077 H       1  ZINC001090961577    0.1800
     43 H43        -1.1793   -1.8435   44.9904 H       1  ZINC001090961577    0.1100
     44 H44        -2.0584   -1.0238   46.3033 H       1  ZINC001090961577    0.0700
     45 H45        -1.6562   -0.1377   44.8130 H       1  ZINC001090961577    0.0700
     46 H46        -0.7178    0.3836   49.4194 H       1  ZINC001090961577    0.1800
     47 H47        -5.6155   -0.0949   50.6161 H       1  ZINC001090961577    0.0900
     48 H48        -6.7947    1.1030   50.0000 H       1  ZINC001090961577    0.0800
@<TRIPOS>BOND
     1     1     2    1
     2     1    27    1
     3     1    28    1
     4     1    29    1
     5     2     3    1
     6     2    30    1
     7     2    31    1
     8     3     4    1
     9     4     5    1
    10     4    32    1
    11     4    33    1
    12     5     6    1
    13     5    34    1
    14     5    35    1
    15     6     7    2
    16     6     8   am
    17     8    26    1
    18     8     9    1
    19     9    10    1
    20     9    36    1
    21     9    37    1
    22    10    11    1
    23    10    12    1
    24    10    13    1
    25    12    38    1
    26    12    39    1
    27    12    40    1
    28    13    14    1
    29    13    15    1
    30    13    26    1
    31    15    16    1
    32    15    41    1
    33    16    25   ar
    34    16    17   ar
    35    17    18   ar
    36    18    19   ar
    37    18    42    1
    38    19    20    1
    39    19    24   ar
    40    20    21    2
    41    20    22    1
    42    22    23    1
    43    23    43    1
    44    23    44    1
    45    23    45    1
    46    24    25   ar
    47    24    46    1
    48    26    47    1
    49    26    48    1
@<TRIPOS>SUBSTRUCTURE
     1 ZINC001090961577        1 TEMP              0 ****  ****    0 ROOT


##########                                Name:    ZINC001065334255
##########                DOCK_Rotatable_Bonds:                   7
##########                         Heavy_Atoms:                  23
##########                    Molecular_Weight:             346.448
##########                DOCK_Rotatable_Bonds:                   7
##########                       Formal_Charge:        -5.81145e-07
##########                     HBond_Acceptors:                   8
##########                        HBond_Donors:                   1
##########                         Heavy_Atoms:                  23
##########                          Grid_Score:          -33.414513
##########                     Grid_vdw_energy:          -31.845531
##########                      Grid_es_energy:           -1.568980
##########           Internal_energy_repulsive:           16.869013

@<TRIPOS>MOLECULE
ZINC001065334255
 49 50 1 0 0
SMALL
USER_CHARGES


@<TRIPOS>ATOM
      1 C1         -9.8939    0.7071   54.1885 C.3     1  ZINC001065334255   -0.1500
      2 C2         -9.0882    0.5816   52.8939 C.3     1  ZINC001065334255   -0.0800
      3 C3         -8.9671    1.9564   52.2333 C.3     1  ZINC001065334255   -0.1500
      4 C4         -7.6916    0.0441   53.2124 C.3     1  ZINC001065334255   -0.1400
      5 C5         -6.9038   -0.0956   51.9353 C.2     1  ZINC001065334255    0.5100
      6 O6         -7.1137   -1.0312   51.1926 O.2     1  ZINC001065334255   -0.5300
      7 N7         -5.9659    0.8190   51.6185 N.am    1  ZINC001065334255   -0.7300
      8 C8         -5.2014    0.6841   50.3762 C.3     1  ZINC001065334255    0.1300
      9 C9         -3.9612    1.5779   50.4411 C.3     1  ZINC001065334255    0.0700
     10 H10        -3.1735    1.0679   50.9957 H       1  ZINC001065334255    0.0700
     11 C11        -3.4731    1.8802   49.0197 C.3     1  ZINC001065334255    0.0800
     12 N12        -2.4019    2.8859   49.1010 N.am    1  ZINC001065334255   -0.6100
     13 C13        -1.2224    2.6951   48.4773 C.2     1  ZINC001065334255    0.5400
     14 O14        -0.3520    3.5360   48.5557 O.2     1  ZINC001065334255   -0.5200
     15 C15        -0.9852    1.4369   47.6825 C.3     1  ZINC001065334255   -0.1100
     16 H16        -1.2418    0.5633   48.2817 H       1  ZINC001065334255    0.1200
     17 C17         0.4877    1.3608   47.2435 C.3     1  ZINC001065334255   -0.1000
     18 C18         0.6263    0.2676   46.1654 C.3     1  ZINC001065334255   -0.5900
     19 S19        -1.0069    0.1985   45.3446 S.o2    1  ZINC001065334255    2.3900
     20 O20        -0.8874    0.6886   44.0161 O.2     1  ZINC001065334255   -0.9300
     21 O21        -1.5989   -1.0717   45.5798 O.2     1  ZINC001065334255   -0.9300
     22 C22        -1.8350    1.4598   46.3859 C.3     1  ZINC001065334255   -0.5900
     23 C23        -2.6567    4.1062   49.8828 C.3     1  ZINC001065334255    0.0600
     24 C24        -3.1846    3.6954   51.2621 C.3     1  ZINC001065334255    0.0500
     25 O25        -4.2903    2.8043   51.0977 O.3     1  ZINC001065334255   -0.3700
     26 H26       -10.8888    1.0902   53.9616 H       1  ZINC001065334255    0.0600
     27 H27        -9.9802   -0.2723   54.6592 H       1  ZINC001065334255    0.0500
     28 H28        -9.3866    1.3929   54.8671 H       1  ZINC001065334255    0.0600
     29 H29        -9.5955   -0.1041   52.2153 H       1  ZINC001065334255    0.0800
     30 H30        -8.4598    2.6422   52.9119 H       1  ZINC001065334255    0.0500
     31 H31        -8.3931    1.8669   51.3110 H       1  ZINC001065334255    0.0700
     32 H32        -9.9621    2.3393   52.0064 H       1  ZINC001065334255    0.0500
     33 H33        -7.1797    0.7359   53.8812 H       1  ZINC001065334255    0.0900
     34 H34        -7.7783   -0.9298   53.6941 H       1  ZINC001065334255    0.0900
     35 H35        -5.7973    1.5666   52.2132 H       1  ZINC001065334255    0.4000
     36 H36        -4.8947   -0.3541   50.2492 H       1  ZINC001065334255    0.0900
     37 H37        -5.8226    0.9853   49.5328 H       1  ZINC001065334255    0.0800
     38 H38        -3.0874    0.9691   48.5623 H       1  ZINC001065334255    0.1100
     39 H39        -4.2981    2.2700   48.4235 H       1  ZINC001065334255    0.0900
     40 H40         0.7978    2.3217   46.8330 H       1  ZINC001065334255    0.1000
     41 H41         1.1132    1.1116   48.1007 H       1  ZINC001065334255    0.1000
     42 H42         1.3997    0.5401   45.4473 H       1  ZINC001065334255    0.1500
     43 H43         0.8587   -0.6921   46.6271 H       1  ZINC001065334255    0.1400
     44 H44        -2.8664    1.1740   46.5929 H       1  ZINC001065334255    0.1400
     45 H45        -1.7917    2.4409   45.9131 H       1  ZINC001065334255    0.1500
     46 H46        -1.7303    4.6691   49.9969 H       1  ZINC001065334255    0.1000
     47 H47        -3.3995    4.7202   49.3733 H       1  ZINC001065334255    0.0900
     48 H48        -2.3937    3.1939   51.8199 H       1  ZINC001065334255    0.0600
     49 H49        -3.5093    4.5820   51.8065 H       1  ZINC001065334255    0.1100
@<TRIPOS>BOND
     1     1     2    1
     2     1    26    1
     3     1    27    1
     4     1    28    1
     5     2     3    1
     6     2     4    1
     7     2    29    1
     8     3    30    1
     9     3    31    1
    10     3    32    1
    11     4     5    1
    12     4    33    1
    13     4    34    1
    14     5     6    2
    15     5     7   am
    16     7     8    1
    17     7    35    1
    18     8     9    1
    19     8    36    1
    20     8    37    1
    21     9    10    1
    22     9    25    1
    23     9    11    1
    24    11    12    1
    25    11    38    1
    26    11    39    1
    27    12    13   am
    28    12    23    1
    29    13    14    2
    30    13    15    1
    31    15    16    1
    32    15    22    1
    33    15    17    1
    34    17    18    1
    35    17    40    1
    36    17    41    1
    37    18    19    1
    38    18    42    1
    39    18    43    1
    40    19    20    2
    41    19    21    2
    42    19    22    1
    43    22    44    1
    44    22    45    1
    45    23    24    1
    46    23    46    1
    47    23    47    1
    48    24    25    1
    49    24    48    1
    50    24    49    1
@<TRIPOS>SUBSTRUCTURE
     1 ZINC001065334255        1 TEMP              0 ****  ****    0 ROOT


##########                                Name:    ZINC001109082135
##########                DOCK_Rotatable_Bonds:                   9
##########                         Heavy_Atoms:                  27
##########                    Molecular_Weight:             373.455
##########                DOCK_Rotatable_Bonds:                   9
##########                       Formal_Charge:          -0.0100003
##########                     HBond_Acceptors:                   8
##########                        HBond_Donors:                   3
##########                         Heavy_Atoms:                  27
##########                          Grid_Score:          -33.401295
##########                     Grid_vdw_energy:          -32.259781
##########                      Grid_es_energy:           -1.141513
##########           Internal_energy_repulsive:           16.450338

@<TRIPOS>MOLECULE
ZINC001109082135
 54 57 1 0 0
SMALL
USER_CHARGES


@<TRIPOS>ATOM
      1 C1         -1.8760    2.5771   58.9897 C.3     1  ZINC001109082135   -0.1400
      2 C2         -2.6097    3.6250   58.1504 C.3     1  ZINC001109082135   -0.1400
      3 C3         -4.0278    3.7595   58.6424 C.2     1  ZINC001109082135    0.5100
      4 O4         -4.2949    4.5640   59.5098 O.2     1  ZINC001109082135   -0.5400
      5 N5         -4.9991    2.9860   58.1184 N.am    1  ZINC001109082135   -0.7200
      6 C6         -6.3774    3.1155   58.5979 C.3     1  ZINC001109082135    0.1000
      7 C7         -7.1192    1.8278   58.3483 C.2     1  ZINC001109082135    0.5100
      8 O8         -6.9397    1.2145   57.3174 O.2     1  ZINC001109082135   -0.5300
      9 N9         -7.9822    1.3575   59.2706 N.am    1  ZINC001109082135   -0.7100
     10 C10        -8.7020    0.1047   59.0287 C.3     1  ZINC001109082135    0.1100
     11 H11        -8.6892   -0.1451   57.9678 H       1  ZINC001109082135    0.0900
     12 C12        -8.0916   -1.0452   59.8669 C.3     1  ZINC001109082135   -0.1600
     13 C13        -9.2680   -1.4888   60.7880 C.3     1  ZINC001109082135    0.0600
     14 H14        -9.1886   -2.4942   61.2015 H       1  ZINC001109082135    0.1300
     15 C15        -9.4183   -0.3416   61.8322 C.3     1  ZINC001109082135   -0.1200
     16 C16       -10.0229    0.8213   61.0078 C.3     1  ZINC001109082135   -0.1100
     17 C17       -10.1668    0.2038   59.5515 C.3     1  ZINC001109082135    0.0400
     18 H18       -10.8838    0.7011   58.8982 H       1  ZINC001109082135    0.1200
     19 N19       -10.4492   -1.2397   59.8869 N.3     1  ZINC001109082135   -0.4800
     20 C20       -10.3967   -2.0798   58.6830 C.3     1  ZINC001109082135    0.0800
     21 C21       -11.6939   -2.8336   58.5396 C.2     1  ZINC001109082135    0.2000
     22 C22       -11.7403   -3.9764   57.8001 C.2     1  ZINC001109082135   -0.2900
     23 C23       -12.9700   -4.6574   57.6867 C.2     1  ZINC001109082135    0.5200
     24 O24       -13.0554   -5.6846   57.0345 O.2     1  ZINC001109082135   -0.5400
     25 N25       -14.0507   -4.1484   58.3161 N.am    1  ZINC001109082135   -0.6300
     26 C26       -13.9382   -3.0129   59.0328 C.2     1  ZINC001109082135    0.4300
     27 C27       -15.1541   -2.4580   59.7291 C.3     1  ZINC001109082135   -0.1400
     28 C28       -15.0057   -2.0584   61.1985 C.3     1  ZINC001109082135   -0.1400
     29 C29       -15.1302   -0.9793   60.1210 C.3     1  ZINC001109082135   -0.1400
     30 N30       -12.7979   -2.3849   59.1418 N.2     1  ZINC001109082135   -0.5300
     31 H31        -2.3847    1.6175   58.8986 H       1  ZINC001109082135    0.0600
     32 H32        -0.8503    2.4799   58.6339 H       1  ZINC001109082135    0.0600
     33 H33        -1.8702    2.8875   60.0345 H       1  ZINC001109082135    0.0600
     34 H34        -2.1009    4.5848   58.2415 H       1  ZINC001109082135    0.1000
     35 H35        -2.6156    3.3146   57.1056 H       1  ZINC001109082135    0.1000
     36 H36        -4.7856    2.3434   57.4238 H       1  ZINC001109082135    0.4100
     37 H37        -6.3716    3.3303   59.6666 H       1  ZINC001109082135    0.1000
     38 H38        -6.8720    3.9286   58.0666 H       1  ZINC001109082135    0.1000
     39 H39        -8.1266    1.8486   60.0945 H       1  ZINC001109082135    0.4000
     40 H40        -7.7788   -1.8662   59.2218 H       1  ZINC001109082135    0.0800
     41 H41        -7.2535   -0.6830   60.4624 H       1  ZINC001109082135    0.0800
     42 H42       -10.0966   -0.6378   62.6325 H       1  ZINC001109082135    0.0700
     43 H43        -8.4458   -0.0605   62.2363 H       1  ZINC001109082135    0.0700
     44 H44       -11.0006    1.1016   61.3995 H       1  ZINC001109082135    0.0700
     45 H45        -9.3499    1.6788   61.0032 H       1  ZINC001109082135    0.0700
     46 H46       -10.2438   -1.4499   57.8067 H       1  ZINC001109082135    0.1000
     47 H47        -9.5727   -2.7880   58.7698 H       1  ZINC001109082135    0.0700
     48 H48       -10.8543   -4.3529   57.3105 H       1  ZINC001109082135    0.1600
     49 H49       -14.9072   -4.5994   58.2521 H       1  ZINC001109082135    0.4200
     50 H50       -16.1088   -2.8804   59.4160 H       1  ZINC001109082135    0.1300
     51 H51       -15.8630   -2.2179   61.8525 H       1  ZINC001109082135    0.1100
     52 H52       -14.0287   -2.1968   61.6615 H       1  ZINC001109082135    0.1100
     53 H53       -14.2352   -0.4077   59.8753 H       1  ZINC001109082135    0.1100
     54 H54       -16.0695   -0.4289   60.0662 H       1  ZINC001109082135    0.1100
@<TRIPOS>BOND
     1     1     2    1
     2     1    31    1
     3     1    32    1
     4     1    33    1
     5     2     3    1
     6     2    34    1
     7     2    35    1
     8     3     4    2
     9     3     5   am
    10     5     6    1
    11     5    36    1
    12     6     7    1
    13     6    37    1
    14     6    38    1
    15     7     8    2
    16     7     9   am
    17     9    10    1
    18     9    39    1
    19    10    11    1
    20    10    17    1
    21    10    12    1
    22    12    13    1
    23    12    40    1
    24    12    41    1
    25    13    14    1
    26    13    19    1
    27    13    15    1
    28    15    16    1
    29    15    42    1
    30    15    43    1
    31    16    17    1
    32    16    44    1
    33    16    45    1
    34    17    18    1
    35    17    19    1
    36    19    20    1
    37    20    21    1
    38    20    46    1
    39    20    47    1
    40    21    30    1
    41    21    22    2
    42    22    23    1
    43    22    48    1
    44    23    24    2
    45    23    25   am
    46    25    26    1
    47    25    49    1
    48    26    27    1
    49    26    30    2
    50    27    29    1
    51    27    28    1
    52    27    50    1
    53    28    29    1
    54    28    51    1
    55    28    52    1
    56    29    53    1
    57    29    54    1
@<TRIPOS>SUBSTRUCTURE
     1 ZINC001109082135        1 TEMP              0 ****  ****    0 ROOT


##########                                Name:    ZINC001207290212
##########                DOCK_Rotatable_Bonds:                   8
##########                         Heavy_Atoms:                  23
##########                    Molecular_Weight:             344.435
##########                DOCK_Rotatable_Bonds:                   8
##########                       Formal_Charge:               -0.03
##########                     HBond_Acceptors:                   9
##########                        HBond_Donors:                   2
##########                         Heavy_Atoms:                  23
##########                          Grid_Score:          -33.385563
##########                     Grid_vdw_energy:          -32.507652
##########                      Grid_es_energy:           -0.877910
##########           Internal_energy_repulsive:            6.984674

@<TRIPOS>MOLECULE
ZINC001207290212
 47 48 1 0 0
SMALL
USER_CHARGES


@<TRIPOS>ATOM
      1 C1         -9.8912    1.0268   52.6663 C.3     1  ZINC001207290212   -0.1500
      2 C2         -9.0632   -0.2323   52.4010 C.3     1  ZINC001207290212   -0.6300
      3 S3         -7.3376    0.0683   52.8723 S.o2    1  ZINC001207290212    2.6100
      4 O4         -7.2635    0.5725   54.1988 O.2     1  ZINC001207290212   -0.9500
      5 O5         -6.5107   -1.0076   52.4503 O.2     1  ZINC001207290212   -0.9500
      6 N6         -6.8662    1.3418   51.9245 N.am    1  ZINC001207290212   -1.1100
      7 C7         -6.9000    1.2205   50.4650 C.3     1  ZINC001207290212    0.0900
      8 C8         -5.9012    2.1723   49.8585 C.2     1  ZINC001207290212    0.5100
      9 O9         -6.2666    3.2521   49.4444 O.2     1  ZINC001207290212   -0.5300
     10 N10        -4.6020    1.8235   49.7763 N.am    1  ZINC001207290212   -0.7200
     11 C11        -3.6308    2.7494   49.1885 C.3     1  ZINC001207290212    0.1400
     12 H12        -4.1392    3.6276   48.7904 H       1  ZINC001207290212    0.1000
     13 C13        -2.8277    2.0476   48.0776 C.3     1  ZINC001207290212    0.0200
     14 N14        -1.4110    2.0444   48.5023 N.3     1  ZINC001207290212   -0.5100
     15 C15        -0.5146    2.1800   47.3464 C.3     1  ZINC001207290212    0.1300
     16 C16        -0.7443    1.0338   46.3955 C.2     1  ZINC001207290212    0.0000
     17 C17        -0.9650   -0.2467   46.7360 C.2     1  ZINC001207290212   -0.0700
     18 O18        -1.1186   -0.9407   45.5913 O.3     1  ZINC001207290212   -0.2000
     19 C19        -0.9907   -0.0809   44.5720 C.2     1  ZINC001207290212    0.1900
     20 C20        -1.0914   -0.4318   43.1099 C.3     1  ZINC001207290212   -0.0600
     21 N21        -0.7711    1.1095   45.0531 N.2     1  ZINC001207290212   -0.4700
     22 C22        -1.2634    3.1963   49.4285 C.3     1  ZINC001207290212    0.0400
     23 C23        -2.5822    3.1690   50.2442 C.3     1  ZINC001207290212   -0.1000
     24 H24        -2.5256    2.4311   51.0445 H       1  ZINC001207290212    0.0900
     25 C25        -2.8977    4.5552   50.8097 C.3     1  ZINC001207290212   -0.1400
     26 H26        -9.8423    1.2771   53.7260 H       1  ZINC001207290212    0.0700
     27 H27        -9.4929    1.8539   52.0787 H       1  ZINC001207290212    0.0700
     28 H28       -10.9281    0.8461   52.3830 H       1  ZINC001207290212    0.0800
     29 H29        -9.4616   -1.0595   52.9885 H       1  ZINC001207290212    0.1300
     30 H30        -9.1121   -0.4827   51.3413 H       1  ZINC001207290212    0.1300
     31 H31        -6.5676    2.1680   52.3358 H       1  ZINC001207290212    0.4300
     32 H32        -6.6483    0.1992   50.1793 H       1  ZINC001207290212    0.1000
     33 H33        -7.8991    1.4633   50.1033 H       1  ZINC001207290212    0.1100
     34 H34        -4.3100    0.9594   50.1064 H       1  ZINC001207290212    0.4100
     35 H35        -3.1807    1.0236   47.9547 H       1  ZINC001207290212    0.0800
     36 H36        -2.9333    2.5946   47.1407 H       1  ZINC001207290212    0.0500
     37 H37        -0.7190    3.1215   46.8366 H       1  ZINC001207290212    0.0600
     38 H38         0.5210    2.1682   47.6864 H       1  ZINC001207290212    0.1000
     39 H39        -1.0104   -0.6452   47.7389 H       1  ZINC001207290212    0.2100
     40 H40        -1.2853   -1.4993   43.0049 H       1  ZINC001207290212    0.0900
     41 H41        -1.9068    0.1318   42.6562 H       1  ZINC001207290212    0.1000
     42 H42        -0.1552   -0.1816   42.6108 H       1  ZINC001207290212    0.1000
     43 H43        -0.4030    3.0560   50.0827 H       1  ZINC001207290212    0.0900
     44 H44        -1.1763    4.1291   48.8714 H       1  ZINC001207290212    0.0500
     45 H45        -2.9797    5.2712   49.9920 H       1  ZINC001207290212    0.0600
     46 H46        -3.8400    4.5186   51.3565 H       1  ZINC001207290212    0.0600
     47 H47        -2.0984    4.8631   51.4837 H       1  ZINC001207290212    0.0600
@<TRIPOS>BOND
     1     1     2    1
     2     1    26    1
     3     1    27    1
     4     1    28    1
     5     2     3    1
     6     2    29    1
     7     2    30    1
     8     3     4    2
     9     3     5    2
    10     3     6   am
    11     6     7    1
    12     6    31    1
    13     7     8    1
    14     7    32    1
    15     7    33    1
    16     8     9    2
    17     8    10   am
    18    10    11    1
    19    10    34    1
    20    11    12    1
    21    11    23    1
    22    11    13    1
    23    13    14    1
    24    13    35    1
    25    13    36    1
    26    14    15    1
    27    14    22    1
    28    15    16    1
    29    15    37    1
    30    15    38    1
    31    16    21    1
    32    16    17    2
    33    17    18    1
    34    17    39    1
    35    18    19    1
    36    19    20    1
    37    19    21    2
    38    20    40    1
    39    20    41    1
    40    20    42    1
    41    22    23    1
    42    22    43    1
    43    22    44    1
    44    23    24    1
    45    23    25    1
    46    25    45    1
    47    25    46    1
    48    25    47    1
@<TRIPOS>SUBSTRUCTURE
     1 ZINC001207290212        1 TEMP              0 ****  ****    0 ROOT


##########                                Name:    ZINC000467185792
##########                DOCK_Rotatable_Bonds:                   9
##########                         Heavy_Atoms:                  29
##########                    Molecular_Weight:             412.513
##########                DOCK_Rotatable_Bonds:                   9
##########                       Formal_Charge:                0.04
##########                     HBond_Acceptors:                   8
##########                        HBond_Donors:                   2
##########                         Heavy_Atoms:                  29
##########                          Grid_Score:          -33.371613
##########                     Grid_vdw_energy:          -32.624088
##########                      Grid_es_energy:           -0.747524
##########           Internal_energy_repulsive:           25.165949

@<TRIPOS>MOLECULE
ZINC000467185792
 53 55 1 0 0
SMALL
USER_CHARGES


@<TRIPOS>ATOM
      1 C1         -3.2466    2.8425   48.1039 C.3     1  ZINC000467185792   -0.1500
      2 C2         -2.5862    1.7381   48.9316 C.3     1  ZINC000467185792   -0.1200
      3 C3         -3.2503    1.6662   50.3081 C.3     1  ZINC000467185792    0.0600
      4 O4         -4.5596    1.1090   50.1767 O.3     1  ZINC000467185792   -0.3100
      5 C5         -5.3145    1.0343   51.3044 C.ar    1  ZINC000467185792    0.1400
      6 C6         -6.4365    0.2175   51.3338 C.ar    1  ZINC000467185792   -0.2100
      7 C7         -7.2045    0.1391   52.4769 C.ar    1  ZINC000467185792   -0.0400
      8 C8         -6.8528    0.8812   53.6033 C.ar    1  ZINC000467185792   -0.0600
      9 C9         -7.6762    0.7988   54.8344 C.2     1  ZINC000467185792    0.1400
     10 C10        -7.4279    1.5569   55.9173 C.2     1  ZINC000467185792   -0.3000
     11 S11        -8.6212    1.1614   57.1521 S.3     1  ZINC000467185792    0.2000
     12 C12        -9.3565   -0.0138   56.0659 C.2     1  ZINC000467185792    0.2800
     13 N13       -10.4584   -0.8033   56.3650 N.am    1  ZINC000467185792   -0.6100
     14 C14       -10.4911   -1.5074   57.5139 C.2     1  ZINC000467185792    0.5900
     15 O15        -9.5552   -1.4509   58.2884 O.2     1  ZINC000467185792   -0.4900
     16 C16       -11.6608   -2.3454   57.8313 C.2     1  ZINC000467185792   -0.2400
     17 C17       -12.6904   -1.8738   58.6433 C.2     1  ZINC000467185792    0.0800
     18 C18       -12.6440   -0.4852   59.2271 C.3     1  ZINC000467185792   -0.1200
     19 C19       -13.3304    0.4930   58.2716 C.3     1  ZINC000467185792   -0.1400
     20 C20       -13.7694   -2.7283   58.9004 C.2     1  ZINC000467185792    0.0600
     21 C21       -14.9038   -2.2568   59.7733 C.3     1  ZINC000467185792   -0.0600
     22 C22       -14.6206   -2.6382   61.2277 C.3     1  ZINC000467185792   -0.1500
     23 N23       -13.8018   -3.9294   58.3903 N.2     1  ZINC000467185792   -0.1800
     24 N24       -12.8718   -4.3946   57.6395 N.am    1  ZINC000467185792   -0.4300
     25 C25       -11.7862   -3.6663   57.3157 C.2     1  ZINC000467185792    0.5000
     26 O26       -10.9181   -4.1353   56.5998 O.2     1  ZINC000467185792   -0.5300
     27 N27        -8.7108   -0.0229   54.9410 N.2     1  ZINC000467185792   -0.5000
     28 C28        -5.7255    1.7005   53.5705 C.ar    1  ZINC000467185792   -0.0600
     29 C29        -4.9587    1.7705   52.4262 C.ar    1  ZINC000467185792   -0.1500
     30 H30        -3.1294    3.7984   48.6143 H       1  ZINC000467185792    0.0600
     31 H31        -2.7735    2.8938   47.1233 H       1  ZINC000467185792    0.0700
     32 H32        -4.3074    2.6221   47.9845 H       1  ZINC000467185792    0.0600
     33 H33        -2.7034    0.7822   48.4212 H       1  ZINC000467185792    0.0700
     34 H34        -1.5254    1.9586   49.0510 H       1  ZINC000467185792    0.0700
     35 H35        -2.6523    1.0374   50.9677 H       1  ZINC000467185792    0.0600
     36 H36        -3.3229    2.6689   50.7293 H       1  ZINC000467185792    0.0600
     37 H37        -6.7086   -0.3568   50.4607 H       1  ZINC000467185792    0.1300
     38 H38        -8.0775   -0.4963   52.4991 H       1  ZINC000467185792    0.1300
     39 H39        -6.6339    2.2826   56.0136 H       1  ZINC000467185792    0.1800
     40 H40       -11.2049   -0.8483   55.7472 H       1  ZINC000467185792    0.4400
     41 H41       -13.1598   -0.4774   60.1873 H       1  ZINC000467185792    0.0900
     42 H42       -11.6058   -0.1855   59.3699 H       1  ZINC000467185792    0.1300
     43 H43       -12.8145    0.4852   57.3113 H       1  ZINC000467185792    0.0600
     44 H44       -14.3686    0.1933   58.1288 H       1  ZINC000467185792    0.0600
     45 H45       -13.2968    1.4973   58.6939 H       1  ZINC000467185792    0.0700
     46 H46       -14.9978   -1.1738   59.6933 H       1  ZINC000467185792    0.1000
     47 H47       -15.8319   -2.7272   59.4485 H       1  ZINC000467185792    0.1000
     48 H48       -15.4411   -2.2971   61.8590 H       1  ZINC000467185792    0.0600
     49 H49       -14.5265   -3.7212   61.3076 H       1  ZINC000467185792    0.0600
     50 H50       -13.6925   -2.1679   61.5525 H       1  ZINC000467185792    0.0600
     51 H51       -12.9548   -5.2962   57.2912 H       1  ZINC000467185792    0.4500
     52 H52        -5.4507    2.2769   54.4415 H       1  ZINC000467185792    0.1300
     53 H53        -4.0850    2.4047   52.4002 H       1  ZINC000467185792    0.1400
@<TRIPOS>BOND
     1     1     2    1
     2     1    30    1
     3     1    31    1
     4     1    32    1
     5     2     3    1
     6     2    33    1
     7     2    34    1
     8     3     4    1
     9     3    35    1
    10     3    36    1
    11     4     5    1
    12     5    29   ar
    13     5     6   ar
    14     6     7   ar
    15     6    37    1
    16     7     8   ar
    17     7    38    1
    18     8     9    1
    19     8    28   ar
    20     9    27    1
    21     9    10    2
    22    10    11    1
    23    10    39    1
    24    11    12    1
    25    12    13    1
    26    12    27    2
    27    13    14   am
    28    13    40    1
    29    14    15    2
    30    14    16    1
    31    16    25    1
    32    16    17    2
    33    17    18    1
    34    17    20    1
    35    18    19    1
    36    18    41    1
    37    18    42    1
    38    19    43    1
    39    19    44    1
    40    19    45    1
    41    20    21    1
    42    20    23    2
    43    21    22    1
    44    21    46    1
    45    21    47    1
    46    22    48    1
    47    22    49    1
    48    22    50    1
    49    23    24    1
    50    24    25   am
    51    24    51    1
    52    25    26    2
    53    28    29   ar
    54    28    52    1
    55    29    53    1
@<TRIPOS>SUBSTRUCTURE
     1 ZINC000467185792        1 TEMP              0 ****  ****    0 ROOT


##########                                Name:    ZINC000007167963
##########                DOCK_Rotatable_Bonds:                   8
##########                         Heavy_Atoms:                  25
##########                    Molecular_Weight:             378.433
##########                DOCK_Rotatable_Bonds:                   8
##########                       Formal_Charge:        -1.01328e-06
##########                     HBond_Acceptors:                  10
##########                        HBond_Donors:                   3
##########                         Heavy_Atoms:                  25
##########                          Grid_Score:          -33.369022
##########                     Grid_vdw_energy:          -26.733896
##########                      Grid_es_energy:           -6.635128
##########           Internal_energy_repulsive:            6.996812

@<TRIPOS>MOLECULE
ZINC000007167963
 39 41 1 0 0
SMALL
USER_CHARGES


@<TRIPOS>ATOM
      1 C1         -6.5606    0.6000   51.0259 C.3     1  ZINC000007167963   -0.0800
      2 C2         -6.8425    1.9713   50.4680 C.2     1  ZINC000007167963    0.0900
      3 C3         -5.9077    2.8719   50.0592 C.2     1  ZINC000007167963   -0.1500
      4 C4         -4.4394    2.7030   50.0734 C.2     1  ZINC000007167963    0.2600
      5 N5         -3.5476    3.6501   49.9125 N.2     1  ZINC000007167963   -0.2700
      6 N6         -2.3674    3.1431   49.9847 N.2     1  ZINC000007167963   -0.2800
      7 C7         -2.4586    1.8517   50.1945 C.2     1  ZINC000007167963    0.1200
      8 S8         -1.1142    0.7258   50.3663 S.3     1  ZINC000007167963    0.1500
      9 C9          0.2779    1.8687   50.1867 C.3     1  ZINC000007167963   -0.1200
     10 H10        -0.0114    2.8539   50.5525 H       1  ZINC000007167963    0.1400
     11 C11         1.4687    1.3532   50.9973 C.3     1  ZINC000007167963   -0.1500
     12 C12         0.6638    1.9658   48.7332 C.2     1  ZINC000007167963    0.5300
     13 O13         0.9040    3.0478   48.2406 O.2     1  ZINC000007167963   -0.4900
     14 N14         0.7421    0.8504   47.9808 N.am    1  ZINC000007167963   -0.6100
     15 C15         1.0989    0.9396   46.6439 C.2     1  ZINC000007167963    0.0800
     16 C16         0.2484    0.7112   45.5933 C.2     1  ZINC000007167963   -0.2400
     17 C17        -1.1606    0.3398   45.7561 C.2     1  ZINC000007167963    0.5900
     18 N18        -1.4966   -0.7016   46.5429 N.am    1  ZINC000007167963   -0.8400
     19 O19        -2.0269    0.9720   45.1807 O.2     1  ZINC000007167963   -0.5600
     20 C20         0.8890    0.8765   44.3071 C.2     1  ZINC000007167963   -0.0900
     21 C21         2.1672    1.2148   44.4009 C.2     1  ZINC000007167963   -0.2800
     22 S22         2.6530    1.3554   46.0811 S.3     1  ZINC000007167963    0.3000
     23 O23        -3.7690    1.5448   50.2604 O.3     1  ZINC000007167963   -0.2000
     24 C24        -6.6609    4.0463   49.6003 C.2     1  ZINC000007167963   -0.1800
     25 C25        -7.9582    3.7455   49.7738 C.2     1  ZINC000007167963   -0.0300
     26 O26        -8.0569    2.5089   50.2847 O.3     1  ZINC000007167963   -0.1700
     27 H27        -7.5017    0.1033   51.2620 H       1  ZINC000007167963    0.0800
     28 H28        -6.0150    0.0124   50.2875 H       1  ZINC000007167963    0.1000
     29 H29        -5.9614    0.6923   51.9317 H       1  ZINC000007167963    0.1000
     30 H30         1.1896    1.2829   52.0486 H       1  ZINC000007167963    0.0900
     31 H31         1.7580    0.3680   50.6315 H       1  ZINC000007167963    0.0800
     32 H32         2.3069    2.0415   50.8892 H       1  ZINC000007167963    0.0800
     33 H33         0.5489   -0.0148   48.3746 H       1  ZINC000007167963    0.4400
     34 H34        -2.4287   -0.9479   46.6496 H       1  ZINC000007167963    0.4000
     35 H35        -0.8063   -1.2048   47.0025 H       1  ZINC000007167963    0.4100
     36 H36         0.3781    0.7376   43.3659 H       1  ZINC000007167963    0.1500
     37 H37         2.8200    1.3848   43.5575 H       1  ZINC000007167963    0.1700
     38 H38        -6.2541    4.9651   49.2044 H       1  ZINC000007167963    0.1600
     39 H39        -8.7889    4.3936   49.5361 H       1  ZINC000007167963    0.2200
@<TRIPOS>BOND
     1     1     2    1
     2     1    27    1
     3     1    28    1
     4     1    29    1
     5     2    26    1
     6     2     3    2
     7     3     4    1
     8     3    24    1
     9     4    23    1
    10     4     5    2
    11     5     6    1
    12     6     7    2
    13     7     8    1
    14     7    23    1
    15     8     9    1
    16     9    10    1
    17     9    11    1
    18     9    12    1
    19    11    30    1
    20    11    31    1
    21    11    32    1
    22    12    13    2
    23    12    14   am
    24    14    15    1
    25    14    33    1
    26    15    22    1
    27    15    16    2
    28    16    17    1
    29    16    20    1
    30    17    18   am
    31    17    19    2
    32    18    34    1
    33    18    35    1
    34    20    21    2
    35    20    36    1
    36    21    22    1
    37    21    37    1
    38    24    25    2
    39    24    38    1
    40    25    26    1
    41    25    39    1
@<TRIPOS>SUBSTRUCTURE
     1 ZINC000007167963        1 TEMP              0 ****  ****    0 ROOT


##########                                Name:    ZINC001707804910
##########                DOCK_Rotatable_Bonds:                   4
##########                         Heavy_Atoms:                  26
##########                    Molecular_Weight:             358.403
##########                DOCK_Rotatable_Bonds:                   4
##########                       Formal_Charge:          -0.0399996
##########                     HBond_Acceptors:                  10
##########                        HBond_Donors:                   0
##########                         Heavy_Atoms:                  26
##########                          Grid_Score:          -33.361652
##########                     Grid_vdw_energy:          -31.943861
##########                      Grid_es_energy:           -1.417793
##########           Internal_energy_repulsive:           11.005016

@<TRIPOS>MOLECULE
ZINC001707804910
 48 51 1 0 0
SMALL
USER_CHARGES


@<TRIPOS>ATOM
      1 C1          0.5796    3.5026   44.7416 C.3     1  ZINC001707804910   -0.0700
      2 C2         -0.1322    2.3988   45.4804 C.2     1  ZINC001707804910    0.0700
      3 N3         -0.0754    1.1234   45.1943 N.2     1  ZINC001707804910   -0.2800
      4 N4         -0.8738    0.4323   46.1149 N.pl3   1  ZINC001707804910   -0.3700
      5 C5         -1.0887   -1.0163   46.1526 C.3     1  ZINC001707804910    0.0900
      6 C6         -1.4099    1.3368   46.9609 C.2     1  ZINC001707804910    0.0500
      7 C7         -2.3357    1.0373   48.1117 C.3     1  ZINC001707804910    0.1800
      8 N8         -2.0418    1.9446   49.2237 N.pl3   1  ZINC001707804910   -0.4600
      9 C9         -0.8102    2.2680   49.7219 C.2     1  ZINC001707804910    0.1900
     10 C10         0.5169    1.7536   49.2264 C.3     1  ZINC001707804910   -0.0700
     11 N11        -0.9965    3.1038   50.7038 N.2     1  ZINC001707804910   -0.2800
     12 N12        -2.2525    3.3288   50.8588 N.2     1  ZINC001707804910   -0.3000
     13 C13        -2.9400    2.6468   49.9734 C.2     1  ZINC001707804910    0.3500
     14 N14        -4.3185    2.6353   49.8319 N.3     1  ZINC001707804910   -0.4600
     15 C15        -4.8899    3.9564   50.1306 C.3     1  ZINC001707804910    0.0200
     16 C16        -6.4035    3.9148   49.9047 C.3     1  ZINC001707804910    0.0700
     17 O17        -6.9731    2.8829   50.7147 O.3     1  ZINC001707804910   -0.3600
     18 C18        -6.4399    1.5826   50.4497 C.3     1  ZINC001707804910    0.2000
     19 H19        -6.6467    1.3083   49.4152 H       1  ZINC001707804910    0.1000
     20 C20        -7.0793    0.5785   51.3739 C.2     1  ZINC001707804910    0.1600
     21 N21        -6.6745   -0.6415   51.5854 N.2     1  ZINC001707804910   -0.2500
     22 N22        -7.4571   -1.2099   52.4341 N.2     1  ZINC001707804910   -0.2900
     23 C23        -8.3876   -0.3717   52.7927 C.2     1  ZINC001707804910    0.1700
     24 C24        -9.5027   -0.6418   53.7699 C.3     1  ZINC001707804910   -0.0600
     25 O25        -8.1680    0.7793   52.1353 O.3     1  ZINC001707804910   -0.2200
     26 C26        -4.9266    1.6007   50.6811 C.3     1  ZINC001707804910    0.0400
     27 C27        -0.9629    2.5602   46.5940 C.2     1  ZINC001707804910   -0.2300
     28 H28         1.5628    3.6611   45.1845 H       1  ZINC001707804910    0.0800
     29 H29         0.6937    3.2240   43.6940 H       1  ZINC001707804910    0.0700
     30 H30        -0.0029    4.4213   44.8118 H       1  ZINC001707804910    0.0800
     31 H31        -0.2724   -1.4908   46.6973 H       1  ZINC001707804910    0.0800
     32 H32        -2.0327   -1.2307   46.6537 H       1  ZINC001707804910    0.0900
     33 H33        -1.1209   -1.4055   45.1350 H       1  ZINC001707804910    0.0900
     34 H34        -3.3686    1.1762   47.7926 H       1  ZINC001707804910    0.1100
     35 H35        -2.1909    0.0067   48.4357 H       1  ZINC001707804910    0.1200
     36 H36         0.8458    2.3545   48.3786 H       1  ZINC001707804910    0.0900
     37 H37         1.2540    1.8201   50.0266 H       1  ZINC001707804910    0.1000
     38 H38         0.4107    0.7142   48.9157 H       1  ZINC001707804910    0.0700
     39 H39        -4.6839    4.2158   51.1691 H       1  ZINC001707804910    0.0700
     40 H40        -4.4441    4.7028   49.4731 H       1  ZINC001707804910    0.0900
     41 H41        -6.8391    4.8754   50.1796 H       1  ZINC001707804910    0.1200
     42 H42        -6.6093    3.7084   48.8544 H       1  ZINC001707804910    0.0700
     43 H43        -9.1766   -0.3765   54.7756 H       1  ZINC001707804910    0.1000
     44 H44       -10.3741   -0.0447   53.5010 H       1  ZINC001707804910    0.1000
     45 H45        -9.7639   -1.6996   53.7399 H       1  ZINC001707804910    0.1100
     46 H46        -4.5077    0.6274   50.4254 H       1  ZINC001707804910    0.1000
     47 H47        -4.7212    1.8222   51.7284 H       1  ZINC001707804910    0.0800
     48 H48        -1.2093    3.4965   47.0726 H       1  ZINC001707804910    0.1500
@<TRIPOS>BOND
     1     1     2    1
     2     1    28    1
     3     1    29    1
     4     1    30    1
     5     2    27    1
     6     2     3    2
     7     3     4    1
     8     4     5    1
     9     4     6    1
    10     5    31    1
    11     5    32    1
    12     5    33    1
    13     6     7    1
    14     6    27    2
    15     7     8    1
    16     7    34    1
    17     7    35    1
    18     8    13    1
    19     8     9    1
    20     9    10    1
    21     9    11    2
    22    10    36    1
    23    10    37    1
    24    10    38    1
    25    11    12    1
    26    12    13    2
    27    13    14    1
    28    14    26    1
    29    14    15    1
    30    15    16    1
    31    15    39    1
    32    15    40    1
    33    16    17    1
    34    16    41    1
    35    16    42    1
    36    17    18    1
    37    18    19    1
    38    18    20    1
    39    18    26    1
    40    20    25    1
    41    20    21    2
    42    21    22    1
    43    22    23    2
    44    23    24    1
    45    23    25    1
    46    24    43    1
    47    24    44    1
    48    24    45    1
    49    26    46    1
    50    26    47    1
    51    27    48    1
@<TRIPOS>SUBSTRUCTURE
     1 ZINC001707804910        1 TEMP              0 ****  ****    0 ROOT


##########                                Name:     oleObject52.pdb
##########                DOCK_Rotatable_Bonds:                  10
##########                         Heavy_Atoms:                  38
##########                    Molecular_Weight:              533.07
##########                DOCK_Rotatable_Bonds:                  10
##########                       Formal_Charge:         0.000300027
##########                     HBond_Acceptors:                   8
##########                        HBond_Donors:                   0
##########                         Heavy_Atoms:                  38
##########                          Grid_Score:          -33.343884
##########                     Grid_vdw_energy:          -32.808552
##########                      Grid_es_energy:           -0.535331
##########           Internal_energy_repulsive:           35.106007

@<TRIPOS>MOLECULE
oleObject52.pdb
 71 74 1 0 0
SMALL
NO_CHARGES


@<TRIPOS>ATOM
      1 C         -15.7970    1.2922   56.2149 C.ar    1  UNL        -0.0596
      2 C         -15.4717   -0.0615   56.0420 C.ar    1  UNL        -0.0314
      3 C         -14.1221   -0.4671   55.9663 C.ar    1  UNL         0.0800
      4 C         -13.0909    0.4954   56.0683 C.ar    1  UNL         0.0089
      5 C         -13.4342    1.8541   56.2360 C.ar    1  UNL        -0.0541
      6 C         -14.7782    2.2498   56.3103 C.ar    1  UNL        -0.0617
      7 C         -11.6241    0.0467   55.9798 C.3     1  UNL         0.0953
      8 C         -11.3603   -1.2559   56.7555 C.ar    1  UNL         0.0684
      9 C         -11.6738   -1.3842   58.1320 C.ar    1  UNL        -0.0272
     10 C         -11.4131   -2.6131   58.7670 C.ar    1  UNL        -0.0559
     11 C         -10.8574   -3.6632   58.0223 C.ar    1  UNL        -0.0435
     12 C         -10.5820   -3.4511   56.6634 C.ar    1  UNL         0.0272
     13 N         -10.8275   -2.2799   56.0471 N.ar    1  UNL        -0.2587
     14 C         -12.2941   -0.2474   58.9351 C.3     1  UNL        -0.0379
     15 N         -11.0600    0.0664   54.5999 N.am    1  UNL        -0.2917
     16 C         -10.0935    1.0144   54.2470 C.2     1  UNL         0.2180
     17 O          -9.5155    1.6553   55.1089 O.2     1  UNL        -0.2772
     18 C          -9.5533    0.9736   52.7946 C.3     1  UNL         0.0385
     19 C          -8.4571   -0.1040   52.6123 C.3     1  UNL        -0.0289
     20 C          -7.1183    0.3146   53.2572 C.3     1  UNL        -0.0010
     21 N          -6.6387    1.6103   52.7226 N.4     1  UNL        -0.3010
     22 C          -7.6244    2.7009   52.8888 C.3     1  UNL        -0.0010
     23 C          -9.0142    2.3444   52.3061 C.3     1  UNL        -0.0289
     24 C          -5.3019    2.0137   53.2127 C.3     1  UNL         0.0222
     25 C          -4.3750    2.5476   52.1011 C.3     1  UNL         0.0661
     26 O          -3.9020    1.4190   51.3444 O.3     1  UNL        -0.3432
     27 C          -3.1880    1.5326   50.1672 C.ar    1  UNL         0.0937
     28 C          -1.8015    1.2796   50.1054 C.ar    1  UNL        -0.0289
     29 C          -1.1130    1.4065   48.8874 C.ar    1  UNL        -0.0417
     30 C          -1.8005    1.7864   47.7217 C.ar    1  UNL         0.0537
     31 C          -3.1816    2.0389   47.7789 C.ar    1  UNL        -0.0230
     32 C          -3.8727    1.9127   48.9954 C.ar    1  UNL         0.0721
     33 CL         -5.5959    2.2367   49.0262 Cl      1  UNL        -0.0814
     34 C          -1.0952    1.9156   46.4791 C.1     1  UNL         0.0992
     35 N          -0.5174    2.0183   45.4826 N.1     1  UNL        -0.1924
     36 C         -11.5964   -0.9233   53.6404 C.3     1  UNL         0.0037
     37 O         -13.7760   -1.7957   55.7872 O.3     1  UNL        -0.3490
     38 C         -14.7333   -2.8608   55.6635 C.3     1  UNL         0.0422
     39 H         -16.8376    1.5981   56.2722 H       1  UNL         0.0624
     40 H         -16.2769   -0.7845   55.9675 H       1  UNL         0.0651
     41 H         -12.6636    2.6138   56.3090 H       1  UNL         0.0627
     42 H         -15.0287    3.2986   56.4413 H       1  UNL         0.0623
     43 H         -11.0718    0.8238   56.5198 H       1  UNL         0.0627
     44 H         -11.6421   -2.7546   59.8193 H       1  UNL         0.0627
     45 H         -10.6487   -4.6227   58.4861 H       1  UNL         0.0639
     46 H         -10.1547   -4.2421   56.0485 H       1  UNL         0.0840
     47 H         -11.7200    0.6780   58.8199 H       1  UNL         0.0280
     48 H         -12.3287   -0.4794   60.0067 H       1  UNL         0.0280
     49 H         -13.3224   -0.0517   58.6058 H       1  UNL         0.0280
     50 H         -10.3896    0.7230   52.1337 H       1  UNL         0.0402
     51 H          -8.2926   -0.2672   51.5393 H       1  UNL         0.0288
     52 H          -8.7857   -1.0652   53.0241 H       1  UNL         0.0288
     53 H          -6.3885   -0.4790   53.0597 H       1  UNL         0.0431
     54 H          -7.2471    0.3885   54.3453 H       1  UNL         0.0431
     55 H          -7.2615    3.6078   52.3881 H       1  UNL         0.0431
     56 H          -7.7273    2.9402   53.9547 H       1  UNL         0.0431
     57 H          -8.9293    2.3168   51.2121 H       1  UNL         0.0288
     58 H          -9.7332    3.1393   52.5421 H       1  UNL         0.0288
     59 H          -4.8140    1.1647   53.7093 H       1  UNL         0.0455
     60 H          -5.4177    2.8098   53.9598 H       1  UNL         0.0455
     61 H          -3.5306    3.0814   52.5557 H       1  UNL         0.0586
     62 H          -4.9250    3.2333   51.4455 H       1  UNL         0.0586
     63 H          -1.2478    0.9843   50.9908 H       1  UNL         0.0651
     64 H          -0.0447    1.2089   48.8513 H       1  UNL         0.0638
     65 H          -3.7202    2.3331   46.8818 H       1  UNL         0.0653
     66 H         -12.6234   -1.2015   53.9027 H       1  UNL         0.0433
     67 H         -10.9714   -1.8247   53.6433 H       1  UNL         0.0433
     68 H         -11.6251   -0.5001   52.6297 H       1  UNL         0.0433
     69 H         -14.2104   -3.8145   55.5215 H       1  UNL         0.0535
     70 H         -15.3867   -2.6906   54.7983 H       1  UNL         0.0535
     71 H         -15.3468   -2.9330   56.5704 H       1  UNL         0.0535
@<TRIPOS>BOND
     1     1     2   ar
     2     1     6   ar
     3     1    39    1
     4     2     3   ar
     5     2    40    1
     6     3     4   ar
     7     3    37    1
     8     4     5   ar
     9     4     7    1
    10     5     6   ar
    11     5    41    1
    12     6    42    1
    13     7     8    1
    14     7    15    1
    15     7    43    1
    16     8     9   ar
    17     8    13   ar
    18     9    10   ar
    19     9    14    1
    20    10    11   ar
    21    10    44    1
    22    11    12   ar
    23    11    45    1
    24    12    13   ar
    25    12    46    1
    26    14    47    1
    27    14    48    1
    28    14    49    1
    29    15    16   am
    30    15    36    1
    31    16    17    2
    32    16    18    1
    33    18    19    1
    34    18    23    1
    35    18    50    1
    36    19    20    1
    37    19    51    1
    38    19    52    1
    39    20    21    1
    40    20    53    1
    41    20    54    1
    42    21    22    1
    43    21    24    1
    44    22    23    1
    45    22    55    1
    46    22    56    1
    47    23    57    1
    48    23    58    1
    49    24    25    1
    50    24    59    1
    51    24    60    1
    52    25    26    1
    53    25    61    1
    54    25    62    1
    55    26    27    1
    56    27    28   ar
    57    27    32   ar
    58    28    29   ar
    59    28    63    1
    60    29    30   ar
    61    29    64    1
    62    30    31   ar
    63    30    34    1
    64    31    32   ar
    65    31    65    1
    66    32    33    1
    67    34    35    3
    68    36    66    1
    69    36    67    1
    70    36    68    1
    71    37    38    1
    72    38    69    1
    73    38    70    1
    74    38    71    1
@<TRIPOS>SUBSTRUCTURE
     1 UNL         1 TEMP              0 ****  ****    0 ROOT


##########                                Name:    ZINC000150894060
##########                DOCK_Rotatable_Bonds:                  10
##########                         Heavy_Atoms:                  27
##########                    Molecular_Weight:              366.42
##########                DOCK_Rotatable_Bonds:                  10
##########                       Formal_Charge:        -6.70552e-07
##########                     HBond_Acceptors:                   7
##########                        HBond_Donors:                   2
##########                         Heavy_Atoms:                  27
##########                          Grid_Score:          -33.331455
##########                     Grid_vdw_energy:          -32.367783
##########                      Grid_es_energy:           -0.963674
##########           Internal_energy_repulsive:            6.593103

@<TRIPOS>MOLECULE
ZINC000150894060
 49 51 1 0 0
SMALL
USER_CHARGES


@<TRIPOS>ATOM
      1 C1        -10.0793   -0.8491   57.8113 C.3     1  ZINC000150894060   -0.1000
      2 C2        -10.7214   -2.1823   57.5260 C.2     1  ZINC000150894060   -0.0800
      3 C3        -11.2444   -2.5967   56.3347 C.2     1  ZINC000150894060   -0.1000
      4 C4        -11.2828   -1.8177   55.0928 C.2     1  ZINC000150894060    0.6100
      5 O5        -12.3486   -1.4340   54.6479 O.2     1  ZINC000150894060   -0.5100
      6 N6        -10.1379   -1.5267   54.4441 N.am    1  ZINC000150894060   -0.7200
      7 C7        -10.1761   -0.7469   53.2044 C.3     1  ZINC000150894060    0.1200
      8 C8         -8.7534   -0.5673   52.6709 C.3     1  ZINC000150894060   -0.1500
      9 C9         -8.5030    0.9127   52.3747 C.3     1  ZINC000150894060    0.1200
     10 N10        -7.1360    1.0866   51.8772 N.am    1  ZINC000150894060   -0.7300
     11 C11        -6.9037    1.8689   50.8046 C.2     1  ZINC000150894060    0.5600
     12 O12        -7.8281    2.4314   50.2509 O.2     1  ZINC000150894060   -0.5300
     13 C13        -5.5244    2.0430   50.3015 C.ar    1  ZINC000150894060   -0.1300
     14 C14        -4.6626    0.9478   50.2256 C.ar    1  ZINC000150894060   -0.0900
     15 C15        -3.3769    1.1170   49.7546 C.ar    1  ZINC000150894060   -0.0900
     16 C16        -2.9411    2.3691   49.3585 C.ar    1  ZINC000150894060   -0.0800
     17 C17        -1.5353    2.5465   48.8456 C.3     1  ZINC000150894060    0.1700
     18 N18        -1.4125    1.9155   47.5292 N.pl3   1  ZINC000150894060   -0.3700
     19 C19        -1.3333    0.5900   47.2884 C.2     1  ZINC000150894060    0.0500
     20 C20        -1.2305    0.4194   45.9500 C.2     1  ZINC000150894060   -0.2700
     21 C21        -1.2476    1.6839   45.3523 C.2     1  ZINC000150894060    0.0400
     22 N22        -1.3629    2.5812   46.2976 N.2     1  ZINC000150894060   -0.2900
     23 C23        -3.7907    3.4588   49.4308 C.ar    1  ZINC000150894060   -0.1100
     24 C24        -5.0804    3.3023   49.8948 C.ar    1  ZINC000150894060   -0.0600
     25 O25       -11.7194   -3.8486   56.5004 O.3     1  ZINC000150894060   -0.1700
     26 C26       -11.5119   -4.2391   57.7645 C.2     1  ZINC000150894060    0.0000
     27 C27       -10.8925   -3.2407   58.4319 C.2     1  ZINC000150894060   -0.2300
     28 H28        -9.0103   -0.9096   57.6069 H       1  ZINC000150894060    0.0800
     29 H29       -10.5280   -0.0861   57.1752 H       1  ZINC000150894060    0.0900
     30 H30       -10.2349   -0.5873   58.8579 H       1  ZINC000150894060    0.0700
     31 H31        -9.2884   -1.8334   54.7981 H       1  ZINC000150894060    0.4100
     32 H32       -10.7786   -1.2721   52.4634 H       1  ZINC000150894060    0.0800
     33 H33       -10.6156    0.2305   53.4034 H       1  ZINC000150894060    0.0800
     34 H34        -8.0389   -0.9145   53.4171 H       1  ZINC000150894060    0.0800
     35 H35        -8.6330   -1.1465   51.7554 H       1  ZINC000150894060    0.0800
     36 H36        -9.2106    1.2572   51.6207 H       1  ZINC000150894060    0.0800
     37 H37        -8.6338    1.4932   53.2879 H       1  ZINC000150894060    0.0800
     38 H38        -6.3982    0.6387   52.3197 H       1  ZINC000150894060    0.4000
     39 H39        -5.0011   -0.0298   50.5351 H       1  ZINC000150894060    0.1300
     40 H40        -2.7090    0.2704   49.6954 H       1  ZINC000150894060    0.1300
     41 H41        -1.3108    3.6098   48.7612 H       1  ZINC000150894060    0.1100
     42 H42        -0.8343    2.0811   49.5385 H       1  ZINC000150894060    0.1000
     43 H43        -1.3486   -0.1940   48.0310 H       1  ZINC000150894060    0.1700
     44 H44        -1.1491   -0.5260   45.4343 H       1  ZINC000150894060    0.1500
     45 H45        -1.1822    1.8846   44.2932 H       1  ZINC000150894060    0.1800
     46 H46        -3.4445    4.4334   49.1198 H       1  ZINC000150894060    0.1300
     47 H47        -5.7426    4.1537   49.9505 H       1  ZINC000150894060    0.1400
     48 H48       -11.7901   -5.1961   58.1808 H       1  ZINC000150894060    0.2100
     49 H49       -10.5916   -3.2524   59.4691 H       1  ZINC000150894060    0.1600
@<TRIPOS>BOND
     1     1     2    1
     2     1    28    1
     3     1    29    1
     4     1    30    1
     5     2    27    1
     6     2     3    2
     7     3     4    1
     8     3    25    1
     9     4     5    2
    10     4     6   am
    11     6     7    1
    12     6    31    1
    13     7     8    1
    14     7    32    1
    15     7    33    1
    16     8     9    1
    17     8    34    1
    18     8    35    1
    19     9    10    1
    20     9    36    1
    21     9    37    1
    22    10    11   am
    23    10    38    1
    24    11    12    2
    25    11    13    1
    26    13    24   ar
    27    13    14   ar
    28    14    15   ar
    29    14    39    1
    30    15    16   ar
    31    15    40    1
    32    16    17    1
    33    16    23   ar
    34    17    18    1
    35    17    41    1
    36    17    42    1
    37    18    22    1
    38    18    19    1
    39    19    20    2
    40    19    43    1
    41    20    21    1
    42    20    44    1
    43    21    22    2
    44    21    45    1
    45    23    24   ar
    46    23    46    1
    47    24    47    1
    48    25    26    1
    49    26    27    2
    50    26    48    1
    51    27    49    1
@<TRIPOS>SUBSTRUCTURE
     1 ZINC000150894060        1 TEMP              0 ****  ****    0 ROOT


##########                                Name:    ZINC001574157642
##########                DOCK_Rotatable_Bonds:                   9
##########                         Heavy_Atoms:                  28
##########                    Molecular_Weight:             387.445
##########                DOCK_Rotatable_Bonds:                   9
##########                       Formal_Charge:          -0.0400004
##########                     HBond_Acceptors:                  11
##########                        HBond_Donors:                   4
##########                         Heavy_Atoms:                  28
##########                          Grid_Score:          -33.324455
##########                     Grid_vdw_energy:          -33.807266
##########                      Grid_es_energy:            0.482811
##########           Internal_energy_repulsive:           10.770736

@<TRIPOS>MOLECULE
ZINC001574157642
 53 55 1 0 0
SMALL
USER_CHARGES


@<TRIPOS>ATOM
      1 C1         -8.2453    2.7096   59.9773 C.3     1  ZINC001574157642   -0.1400
      2 C2         -8.6826    1.2767   60.2882 C.3     1  ZINC001574157642   -0.0900
      3 C3         -9.1830    1.1981   61.7319 C.3     1  ZINC001574157642   -0.1500
      4 C4         -9.8081    0.8689   59.3354 C.3     1  ZINC001574157642   -0.1300
      5 C5         -9.2555   -0.0800   58.2698 C.3     1  ZINC001574157642    0.1300
      6 H6         -8.4713   -0.6988   58.7058 H       1  ZINC001574157642    0.1100
      7 C7         -8.6772    0.7353   57.1115 C.3     1  ZINC001574157642    0.1100
      8 N8         -8.5100   -0.1299   55.9411 N.pl3   1  ZINC001574157642   -0.7100
      9 C9         -7.8286    0.3368   54.8239 C.ar    1  ZINC001574157642    0.3700
     10 C10        -7.1331    1.5431   54.8857 C.ar    1  ZINC001574157642    0.0000
     11 N11        -6.4867    1.9867   53.8259 N.ar    1  ZINC001574157642   -0.3700
     12 C12        -6.4978    1.2827   52.6974 C.ar    1  ZINC001574157642    0.0800
     13 C13        -5.7698    1.7815   51.5043 C.2     1  ZINC001574157642    0.2300
     14 N14        -4.9240    2.7921   51.4634 N.2     1  ZINC001574157642   -0.2700
     15 N15        -4.5064    2.9078   50.2497 N.pl3   1  ZINC001574157642   -0.2300
     16 N16        -5.0607    2.0031   49.5205 N.2     1  ZINC001574157642   -0.0400
     17 N17        -5.8398    1.2887   50.2595 N.2     1  ZINC001574157642   -0.2600
     18 C18        -7.1925    0.0770   52.6360 C.ar    1  ZINC001574157642    0.1600
     19 N19        -7.8356   -0.3690   53.6997 N.ar    1  ZINC001574157642   -0.5000
     20 N20       -10.3344   -0.9374   57.7727 N.am    1  ZINC001574157642   -0.7300
     21 C21       -10.5383   -2.1509   58.3224 C.2     1  ZINC001574157642    0.5200
     22 O22        -9.8277   -2.5338   59.2276 O.2     1  ZINC001574157642   -0.5100
     23 C23       -11.6493   -3.0322   57.8123 C.3     1  ZINC001574157642   -0.1300
     24 H24       -11.9799   -2.6760   56.8367 H       1  ZINC001574157642    0.1100
     25 C25       -12.8244   -3.0006   58.7969 C.3     1  ZINC001574157642   -0.1000
     26 C26       -14.0013   -3.7522   58.1699 C.3     1  ZINC001574157642   -0.1400
     27 C27       -13.5379   -5.0809   57.6455 C.2     1  ZINC001574157642    0.5200
     28 O28       -14.3729   -5.9300   57.4154 O.2     1  ZINC001574157642   -0.5500
     29 N29       -12.2576   -5.3770   57.4186 N.am    1  ZINC001574157642   -0.7200
     30 C30       -11.1472   -4.4715   57.6897 C.3     1  ZINC001574157642    0.1200
     31 H31        -9.0921    3.3838   60.1055 H       1  ZINC001574157642    0.0400
     32 H32        -7.4435    3.0000   60.6561 H       1  ZINC001574157642    0.0500
     33 H33        -7.8887    2.7656   58.9488 H       1  ZINC001574157642    0.0700
     34 H34        -7.8358    0.6024   60.1599 H       1  ZINC001574157642    0.0700
     35 H35       -10.0298    1.8723   61.8601 H       1  ZINC001574157642    0.0500
     36 H36        -9.4946    0.1773   61.9534 H       1  ZINC001574157642    0.0500
     37 H37        -8.3812    1.4886   62.4106 H       1  ZINC001574157642    0.0500
     38 H38       -10.5952    0.3657   59.8970 H       1  ZINC001574157642    0.0700
     39 H39       -10.2165    1.7574   58.8540 H       1  ZINC001574157642    0.0800
     40 H40        -9.3573    1.5510   56.8662 H       1  ZINC001574157642    0.0800
     41 H41        -7.7095    1.1440   57.4024 H       1  ZINC001574157642    0.0900
     42 H42        -8.8750   -1.0286   55.9462 H       1  ZINC001574157642    0.4100
     43 H43        -7.1240    2.1147   55.8020 H       1  ZINC001574157642    0.1700
     44 H44        -3.8741    3.5726   49.9349 H       1  ZINC001574157642    0.4800
     45 H45        -7.2021   -0.4948   51.7198 H       1  ZINC001574157642    0.1800
     46 H46       -10.9021   -0.6317   57.0480 H       1  ZINC001574157642    0.4000
     47 H47       -12.5347   -3.4849   59.7296 H       1  ZINC001574157642    0.0800
     48 H48       -13.1112   -1.9675   58.9929 H       1  ZINC001574157642    0.0900
     49 H49       -14.7732   -3.9095   58.9233 H       1  ZINC001574157642    0.1100
     50 H50       -14.4119   -3.1626   57.3502 H       1  ZINC001574157642    0.1000
     51 H51       -12.0515   -6.2492   57.0476 H       1  ZINC001574157642    0.4000
     52 H52       -10.4224   -4.5372   56.8783 H       1  ZINC001574157642    0.0800
     53 H53       -10.6655   -4.7617   58.6234 H       1  ZINC001574157642    0.0700
@<TRIPOS>BOND
     1     1     2    1
     2     1    31    1
     3     1    32    1
     4     1    33    1
     5     2     3    1
     6     2     4    1
     7     2    34    1
     8     3    35    1
     9     3    36    1
    10     3    37    1
    11     4     5    1
    12     4    38    1
    13     4    39    1
    14     5     6    1
    15     5     7    1
    16     5    20    1
    17     7     8    1
    18     7    40    1
    19     7    41    1
    20     8     9    1
    21     8    42    1
    22     9    19   ar
    23     9    10   ar
    24    10    11   ar
    25    10    43    1
    26    11    12   ar
    27    12    13    1
    28    12    18   ar
    29    13    17    1
    30    13    14    2
    31    14    15    1
    32    15    16    1
    33    15    44    1
    34    16    17    2
    35    18    19   ar
    36    18    45    1
    37    20    21   am
    38    20    46    1
    39    21    22    2
    40    21    23    1
    41    23    24    1
    42    23    30    1
    43    23    25    1
    44    25    26    1
    45    25    47    1
    46    25    48    1
    47    26    27    1
    48    26    49    1
    49    26    50    1
    50    27    28    2
    51    27    29   am
    52    29    30    1
    53    29    51    1
    54    30    52    1
    55    30    53    1
@<TRIPOS>SUBSTRUCTURE
     1 ZINC001574157642        1 TEMP              0 ****  ****    0 ROOT


##########                                Name:    ZINC000432253027
##########                DOCK_Rotatable_Bonds:                   8
##########                         Heavy_Atoms:                  26
##########                    Molecular_Weight:             401.436
##########                DOCK_Rotatable_Bonds:                   8
##########                       Formal_Charge:         1.19209e-07
##########                     HBond_Acceptors:                  11
##########                        HBond_Donors:                   0
##########                         Heavy_Atoms:                  26
##########                          Grid_Score:          -33.290318
##########                     Grid_vdw_energy:          -30.600454
##########                      Grid_es_energy:           -2.689863
##########           Internal_energy_repulsive:            8.012769

@<TRIPOS>MOLECULE
ZINC000432253027
 40 42 1 0 0
SMALL
USER_CHARGES


@<TRIPOS>ATOM
      1 C1         -5.1381    2.8835   54.0065 C.3     1  ZINC000432253027    0.0300
      2 O2         -5.9190    2.7892   52.8134 O.3     1  ZINC000432253027   -0.3100
      3 C3         -6.4633    1.5783   52.5269 C.ar    1  ZINC000432253027    0.1500
      4 C4         -7.3984    1.0167   53.3807 C.ar    1  ZINC000432253027   -0.2100
      5 C5         -7.9515   -0.2160   53.0884 C.ar    1  ZINC000432253027   -0.0600
      6 C6         -7.5766   -0.8967   51.9433 C.ar    1  ZINC000432253027   -0.1600
      7 C7         -6.6465   -0.3507   51.0828 C.ar    1  ZINC000432253027   -0.0300
      8 C8         -6.0858    0.8951   51.3641 C.ar    1  ZINC000432253027   -0.0600
      9 C9         -5.0890    1.4853   50.4465 C.2     1  ZINC000432253027    0.1200
     10 N10        -3.9218    0.9775   50.1705 N.2     1  ZINC000432253027   -0.4600
     11 C11        -3.1653    1.6436   49.3279 C.2     1  ZINC000432253027    0.0800
     12 C12        -1.7952    1.1600   48.9280 C.3     1  ZINC000432253027   -0.0200
     13 S13        -0.5971    2.5078   49.1241 S.3     1  ZINC000432253027   -0.1700
     14 C14         0.8291    1.9291   48.1640 C.3     1  ZINC000432253027   -0.0300
     15 C15         0.6590    2.3291   46.7211 C.2     1  ZINC000432253027    0.2100
     16 N16         0.8251    3.5273   46.2164 N.2     1  ZINC000432253027   -0.2700
     17 N17         0.5879    3.4628   44.9517 N.2     1  ZINC000432253027   -0.0500
     18 N18         0.2748    2.2545   44.6364 N.2     1  ZINC000432253027   -0.0700
     19 N19         0.3127    1.5242   45.6995 N.pl3   1  ZINC000432253027   -0.3100
     20 C20         0.0236    0.0904   45.7808 C.3     1  ZINC000432253027    0.0700
     21 C21        -1.1341   -0.2506   44.8405 C.3     1  ZINC000432253027    0.4300
     22 F22        -0.6519   -0.3746   43.5330 F       1  ZINC000432253027   -0.1500
     23 F23        -1.7181   -1.4580   45.2386 F       1  ZINC000432253027   -0.1700
     24 F24        -2.0909    0.7689   44.8899 F       1  ZINC000432253027   -0.1700
     25 C25        -3.6865    2.7765   48.8468 C.2     1  ZINC000432253027   -0.2500
     26 S26        -5.2916    2.9849   49.5443 S.3     1  ZINC000432253027    0.1600
     27 H27        -4.7635    3.9012   54.1160 H       1  ZINC000432253027    0.1000
     28 H28        -5.7573    2.6297   54.8670 H       1  ZINC000432253027    0.0600
     29 H29        -4.2981    2.1915   53.9466 H       1  ZINC000432253027    0.0600
     30 H30        -7.6955    1.5425   54.2760 H       1  ZINC000432253027    0.1400
     31 H31        -8.6796   -0.6504   53.7573 H       1  ZINC000432253027    0.1300
     32 H32        -8.0137   -1.8593   51.7225 H       1  ZINC000432253027    0.1300
     33 H33        -6.3563   -0.8853   50.1903 H       1  ZINC000432253027    0.1400
     34 H34        -1.5063    0.3219   49.5623 H       1  ZINC000432253027    0.1000
     35 H35        -1.8130    0.8382   47.8867 H       1  ZINC000432253027    0.1100
     36 H36         1.7400    2.3774   48.5604 H       1  ZINC000432253027    0.1100
     37 H37         0.8980    0.8435   48.2344 H       1  ZINC000432253027    0.1300
     38 H38         0.9081   -0.4757   45.4883 H       1  ZINC000432253027    0.1500
     39 H39        -0.2510   -0.1675   46.8036 H       1  ZINC000432253027    0.1600
     40 H40        -3.2080    3.4467   48.1481 H       1  ZINC000432253027    0.1800
@<TRIPOS>BOND
     1     1     2    1
     2     1    27    1
     3     1    28    1
     4     1    29    1
     5     2     3    1
     6     3     8   ar
     7     3     4   ar
     8     4     5   ar
     9     4    30    1
    10     5     6   ar
    11     5    31    1
    12     6     7   ar
    13     6    32    1
    14     7     8   ar
    15     7    33    1
    16     8     9    1
    17     9    26    1
    18     9    10    2
    19    10    11    1
    20    11    12    1
    21    11    25    2
    22    12    13    1
    23    12    34    1
    24    12    35    1
    25    13    14    1
    26    14    15    1
    27    14    36    1
    28    14    37    1
    29    15    19    1
    30    15    16    2
    31    16    17    1
    32    17    18    2
    33    18    19    1
    34    19    20    1
    35    20    21    1
    36    20    38    1
    37    20    39    1
    38    21    22    1
    39    21    23    1
    40    21    24    1
    41    25    26    1
    42    25    40    1
@<TRIPOS>SUBSTRUCTURE
     1 ZINC000432253027        1 TEMP              0 ****  ****    0 ROOT


##########                                Name:    ZINC000045927156
##########                DOCK_Rotatable_Bonds:                   7
##########                         Heavy_Atoms:                  30
##########                    Molecular_Weight:             418.522
##########                DOCK_Rotatable_Bonds:                   7
##########                       Formal_Charge:           0.0200001
##########                     HBond_Acceptors:                   8
##########                        HBond_Donors:                   1
##########                         Heavy_Atoms:                  30
##########                          Grid_Score:          -33.286419
##########                     Grid_vdw_energy:          -32.752701
##########                      Grid_es_energy:           -0.533716
##########           Internal_energy_repulsive:           15.104954

@<TRIPOS>MOLECULE
ZINC000045927156
 52 56 1 0 0
SMALL
USER_CHARGES


@<TRIPOS>ATOM
      1 O1        -11.8532   -3.0280   56.4413 O.2     1  ZINC000045927156   -0.5800
      2 C2        -12.1051   -2.0881   55.7122 C.2     1  ZINC000045927156    0.7300
      3 N3        -11.1038   -1.3471   55.1977 N.am    1  ZINC000045927156   -0.7400
      4 C4         -9.7121   -1.6705   55.5217 C.3     1  ZINC000045927156    0.1700
      5 C5         -8.9018   -0.4012   55.5794 C.ar    1  ZINC000045927156   -0.0700
      6 C6         -8.6047    0.1741   56.8004 C.ar    1  ZINC000045927156   -0.1000
      7 C7         -7.8613    1.3386   56.8534 C.ar    1  ZINC000045927156   -0.1100
      8 C8         -7.4149    1.9271   55.6853 C.ar    1  ZINC000045927156   -0.1100
      9 C9         -7.7112    1.3512   54.4639 C.ar    1  ZINC000045927156   -0.1000
     10 C10        -8.4507    0.1848   54.4111 C.ar    1  ZINC000045927156   -0.1000
     11 C11        -8.7738   -0.4432   53.0797 C.3     1  ZINC000045927156    0.1700
     12 N12        -7.7496   -0.0681   52.1017 N.pl3   1  ZINC000045927156   -0.3800
     13 C13        -6.6036   -0.7220   51.8440 C.2     1  ZINC000045927156    0.2500
     14 N14        -5.9655   -0.0692   50.9068 N.2     1  ZINC000045927156   -0.5400
     15 C15        -6.6695    1.0019   50.5426 C.2     1  ZINC000045927156    0.2000
     16 N16        -7.7728    1.0427   51.2424 N.2     1  ZINC000045927156   -0.3100
     17 N17       -13.3854   -1.7906   55.4142 N.am    1  ZINC000045927156   -0.6200
     18 C18       -13.8309   -0.6871   54.5440 C.3     1  ZINC000045927156    0.1000
     19 C19       -15.2252   -1.1252   54.0304 C.3     1  ZINC000045927156   -0.1300
     20 C20       -15.8082   -1.8360   55.2803 C.3     1  ZINC000045927156   -0.1200
     21 C21       -14.5688   -2.5166   55.8980 C.3     1  ZINC000045927156    0.2300
     22 H22       -14.5237   -3.5596   55.5844 H       1  ZINC000045927156    0.1000
     23 C23       -14.6356   -2.4362   57.4014 C.2     1  ZINC000045927156    0.0900
     24 N24       -14.7066   -1.3424   58.0610 N.2     1  ZINC000045927156   -0.4500
     25 C25       -14.7609   -1.4204   59.4044 C.ar    1  ZINC000045927156    0.0800
     26 C26       -14.8422   -0.3908   60.3632 C.ar    1  ZINC000045927156   -0.0700
     27 C27       -14.8869   -0.6875   61.6919 C.ar    1  ZINC000045927156   -0.1100
     28 C28       -14.8539   -2.0048   62.1267 C.ar    1  ZINC000045927156   -0.1000
     29 C29       -14.7747   -3.0313   61.2125 C.ar    1  ZINC000045927156   -0.0700
     30 C30       -14.7280   -2.7468   59.8497 C.ar    1  ZINC000045927156   -0.1800
     31 S31       -14.6335   -3.7929   58.4364 S.3     1  ZINC000045927156    0.1200
     32 H32       -11.3046   -0.5997   54.6128 H       1  ZINC000045927156    0.3900
     33 H33        -9.6712   -2.1720   56.4885 H       1  ZINC000045927156    0.1000
     34 H34        -9.3036   -2.3277   54.7540 H       1  ZINC000045927156    0.0700
     35 H35        -8.9536   -0.2858   57.7133 H       1  ZINC000045927156    0.1300
     36 H36        -7.6298    1.7885   57.8074 H       1  ZINC000045927156    0.1300
     37 H37        -6.8348    2.8372   55.7266 H       1  ZINC000045927156    0.1300
     38 H38        -7.3627    1.8113   53.5510 H       1  ZINC000045927156    0.1300
     39 H39        -8.7954   -1.5278   53.1852 H       1  ZINC000045927156    0.1100
     40 H40        -9.7476   -0.0917   52.7390 H       1  ZINC000045927156    0.1000
     41 H41        -6.2680   -1.6278   52.3269 H       1  ZINC000045927156    0.2200
     42 H42        -6.3779    1.7177   49.7883 H       1  ZINC000045927156    0.2200
     43 H43       -13.9104    0.2379   55.1150 H       1  ZINC000045927156    0.0700
     44 H44       -13.1417   -0.5606   53.7090 H       1  ZINC000045927156    0.0800
     45 H45       -15.8294   -0.2609   53.7550 H       1  ZINC000045927156    0.0900
     46 H46       -15.1335   -1.8183   53.1941 H       1  ZINC000045927156    0.0800
     47 H47       -16.2387   -1.1106   55.9707 H       1  ZINC000045927156    0.0900
     48 H48       -16.5496   -2.5803   54.9899 H       1  ZINC000045927156    0.0900
     49 H49       -14.8689    0.6402   60.0425 H       1  ZINC000045927156    0.1300
     50 H50       -14.9484    0.1118   62.4155 H       1  ZINC000045927156    0.1400
     51 H51       -14.8900   -2.2250   63.1834 H       1  ZINC000045927156    0.1400
     52 H52       -14.7482   -4.0563   61.5518 H       1  ZINC000045927156    0.1300
@<TRIPOS>BOND
     1     1     2    2
     2     2     3   am
     3     2    17   am
     4     3     4    1
     5     3    32    1
     6     4     5    1
     7     4    33    1
     8     4    34    1
     9     5    10   ar
    10     5     6   ar
    11     6     7   ar
    12     6    35    1
    13     7     8   ar
    14     7    36    1
    15     8     9   ar
    16     8    37    1
    17     9    10   ar
    18     9    38    1
    19    10    11    1
    20    11    12    1
    21    11    39    1
    22    11    40    1
    23    12    16    1
    24    12    13    1
    25    13    14    2
    26    13    41    1
    27    14    15    1
    28    15    16    2
    29    15    42    1
    30    17    21    1
    31    17    18    1
    32    18    19    1
    33    18    43    1
    34    18    44    1
    35    19    20    1
    36    19    45    1
    37    19    46    1
    38    20    21    1
    39    20    47    1
    40    20    48    1
    41    21    22    1
    42    21    23    1
    43    23    31    1
    44    23    24    2
    45    24    25    1
    46    25    30   ar
    47    25    26   ar
    48    26    27   ar
    49    26    49    1
    50    27    28   ar
    51    27    50    1
    52    28    29   ar
    53    28    51    1
    54    29    30   ar
    55    29    52    1
    56    30    31    1
@<TRIPOS>SUBSTRUCTURE
     1 ZINC000045927156        1 TEMP              0 ****  ****    0 ROOT


##########                                Name:    ZINC001041713551
##########                DOCK_Rotatable_Bonds:                  10
##########                         Heavy_Atoms:                  22
##########                    Molecular_Weight:             330.448
##########                DOCK_Rotatable_Bonds:                  10
##########                       Formal_Charge:          -0.0100006
##########                     HBond_Acceptors:                   7
##########                        HBond_Donors:                   2
##########                         Heavy_Atoms:                  22
##########                          Grid_Score:          -33.279350
##########                     Grid_vdw_energy:          -32.816391
##########                      Grid_es_energy:           -0.462961
##########           Internal_energy_repulsive:            8.329352

@<TRIPOS>MOLECULE
ZINC001041713551
 48 49 1 0 0
SMALL
USER_CHARGES


@<TRIPOS>ATOM
      1 C1         -1.1825   -0.6491   46.3142 C.3     1  ZINC001041713551   -0.1500
      2 C2         -0.2921    0.5908   46.2091 C.3     1  ZINC001041713551   -0.1100
      3 C3         -1.0561    1.7083   45.4962 C.3     1  ZINC001041713551   -0.1000
      4 S4         -2.5637    2.0989   46.4264 S.3     1  ZINC001041713551   -0.1800
      5 C5         -1.9220    2.6490   48.0314 C.3     1  ZINC001041713551   -0.1300
      6 C6         -3.0578    3.1665   48.8759 C.2     1  ZINC001041713551    0.5300
      7 O7         -2.8584    4.0452   49.6877 O.2     1  ZINC001041713551   -0.5100
      8 N8         -4.2952    2.6527   48.7291 N.am    1  ZINC001041713551   -0.7300
      9 C9         -5.3997    3.1570   49.5489 C.3     1  ZINC001041713551    0.1000
     10 C10        -5.6644    2.1857   50.7010 C.3     1  ZINC001041713551    0.0900
     11 O11        -4.6675    2.2486   51.7229 O.3     1  ZINC001041713551   -0.5200
     12 C12        -7.1072    2.2364   51.2353 C.3     1  ZINC001041713551    0.0900
     13 N13        -7.0336    0.7634   51.2860 N.am    1  ZINC001041713551   -0.6400
     14 C14        -7.6649   -0.1899   51.9997 C.2     1  ZINC001041713551    0.5500
     15 O15        -7.3911   -1.3586   51.8260 O.2     1  ZINC001041713551   -0.5100
     16 C16        -8.7109    0.1964   53.0135 C.3     1  ZINC001041713551    0.0800
     17 H17        -9.2516    1.0748   52.6613 H       1  ZINC001041713551    0.0800
     18 C18        -8.0341    0.5152   54.3492 C.3     1  ZINC001041713551   -0.1500
     19 C19        -9.1075    0.8482   55.3900 C.3     1  ZINC001041713551   -0.1200
     20 C20       -10.0810   -0.3294   55.4980 C.3     1  ZINC001041713551   -0.1600
     21 C21       -10.6787   -0.6156   54.1180 C.3     1  ZINC001041713551    0.0600
     22 O22        -9.6257   -0.8870   53.1909 O.3     1  ZINC001041713551   -0.3600
     23 C23        -5.9913    0.7533   50.2413 C.3     1  ZINC001041713551    0.1200
     24 H24        -1.4627   -0.9809   45.3145 H       1  ZINC001041713551    0.0600
     25 H25        -0.6382   -1.4452   46.8221 H       1  ZINC001041713551    0.0600
     26 H26        -2.0808   -0.4043   46.8809 H       1  ZINC001041713551    0.0600
     27 H27        -0.0119    0.9227   47.2088 H       1  ZINC001041713551    0.0700
     28 H28         0.6062    0.3460   45.6424 H       1  ZINC001041713551    0.0700
     29 H29        -0.4270    2.5964   45.4343 H       1  ZINC001041713551    0.0800
     30 H30        -1.3236    1.3818   44.4913 H       1  ZINC001041713551    0.0800
     31 H31        -1.4449    1.8104   48.5386 H       1  ZINC001041713551    0.1100
     32 H32        -1.1920    3.4437   47.8778 H       1  ZINC001041713551    0.1100
     33 H33        -4.4543    1.9491   48.0807 H       1  ZINC001041713551    0.4000
     34 H34        -5.1362    4.1351   49.9514 H       1  ZINC001041713551    0.0900
     35 H35        -6.2962    3.2460   48.9354 H       1  ZINC001041713551    0.0900
     36 H36        -3.7661    2.1077   51.4022 H       1  ZINC001041713551    0.3800
     37 H37        -7.1967    2.7059   52.2151 H       1  ZINC001041713551    0.0900
     38 H38        -7.8302    2.6156   50.5130 H       1  ZINC001041713551    0.1000
     39 H39        -7.4598   -0.3495   54.6821 H       1  ZINC001041713551    0.0800
     40 H40        -7.3688    1.3698   54.2257 H       1  ZINC001041713551    0.0800
     41 H41        -8.6361    1.0216   56.3574 H       1  ZINC001041713551    0.0700
     42 H42        -9.6495    1.7422   55.0816 H       1  ZINC001041713551    0.0700
     43 H43        -9.5481   -1.2111   55.8541 H       1  ZINC001041713551    0.0700
     44 H44       -10.8798   -0.0789   56.1961 H       1  ZINC001041713551    0.0800
     45 H45       -11.3399   -1.4800   54.1803 H       1  ZINC001041713551    0.1000
     46 H46       -11.2454    0.2521   53.7802 H       1  ZINC001041713551    0.0500
     47 H47        -6.3864    0.6968   49.2270 H       1  ZINC001041713551    0.1100
     48 H48        -5.1896    0.0385   50.4274 H       1  ZINC001041713551    0.1000
@<TRIPOS>BOND
     1     1     2    1
     2     1    24    1
     3     1    25    1
     4     1    26    1
     5     2     3    1
     6     2    27    1
     7     2    28    1
     8     3     4    1
     9     3    29    1
    10     3    30    1
    11     4     5    1
    12     5     6    1
    13     5    31    1
    14     5    32    1
    15     6     7    2
    16     6     8   am
    17     8     9    1
    18     8    33    1
    19     9    10    1
    20     9    34    1
    21     9    35    1
    22    10    23    1
    23    10    11    1
    24    10    12    1
    25    11    36    1
    26    12    13    1
    27    12    37    1
    28    12    38    1
    29    13    14   am
    30    13    23    1
    31    14    15    2
    32    14    16    1
    33    16    17    1
    34    16    22    1
    35    16    18    1
    36    18    19    1
    37    18    39    1
    38    18    40    1
    39    19    20    1
    40    19    41    1
    41    19    42    1
    42    20    21    1
    43    20    43    1
    44    20    44    1
    45    21    22    1
    46    21    45    1
    47    21    46    1
    48    23    47    1
    49    23    48    1
@<TRIPOS>SUBSTRUCTURE
     1 ZINC001041713551        1 TEMP              0 ****  ****    0 ROOT


##########                                Name:    ZINC000298969660
##########                DOCK_Rotatable_Bonds:                  10
##########                         Heavy_Atoms:                  29
##########                    Molecular_Weight:             397.474
##########                DOCK_Rotatable_Bonds:                  10
##########                       Formal_Charge:          -0.0100008
##########                     HBond_Acceptors:                   7
##########                        HBond_Donors:                   2
##########                         Heavy_Atoms:                  29
##########                          Grid_Score:          -33.276718
##########                     Grid_vdw_energy:          -31.526247
##########                      Grid_es_energy:           -1.750469
##########           Internal_energy_repulsive:           22.280867

@<TRIPOS>MOLECULE
ZINC000298969660
 56 58 1 0 0
SMALL
USER_CHARGES


@<TRIPOS>ATOM
      1 C1         -1.6853    0.5061   44.3746 C.3     1  ZINC000298969660    0.0800
      2 N2         -1.3620    0.5432   45.8030 N.am    1  ZINC000298969660   -0.6300
      3 C3         -0.4228   -0.4294   46.3668 C.3     1  ZINC000298969660    0.1400
      4 C4          1.0111    0.0232   46.0841 C.3     1  ZINC000298969660    0.0700
      5 H5          1.6909   -0.8183   46.2174 H       1  ZINC000298969660    0.0500
      6 C6          1.3924    1.1460   47.0524 C.3     1  ZINC000298969660   -0.1500
      7 C7          2.8066    1.6346   46.7242 C.3     1  ZINC000298969660   -0.1200
      8 C8          2.8515    2.0880   45.2617 C.3     1  ZINC000298969660   -0.1600
      9 C9          2.4138    0.9289   44.3624 C.3     1  ZINC000298969660    0.0600
     10 O10         1.1035    0.5024   44.7409 O.3     1  ZINC000298969660   -0.3600
     11 C11        -1.9287    1.4721   46.5982 C.2     1  ZINC000298969660    0.7100
     12 O12        -2.7093    2.2784   46.1304 O.2     1  ZINC000298969660   -0.5400
     13 N13        -1.6300    1.5074   47.9120 N.am    1  ZINC000298969660   -0.6900
     14 C14        -2.2183    2.4719   48.7376 C.ar    1  ZINC000298969660    0.2000
     15 C15        -1.5394    3.6489   49.0249 C.ar    1  ZINC000298969660   -0.1800
     16 C16        -2.1200    4.6011   49.8405 C.ar    1  ZINC000298969660   -0.0600
     17 C17        -3.3771    4.3854   50.3720 C.ar    1  ZINC000298969660   -0.2300
     18 C18        -4.0603    3.2109   50.0882 C.ar    1  ZINC000298969660    0.1500
     19 O19        -5.2964    2.9999   50.6120 O.3     1  ZINC000298969660   -0.2900
     20 C20        -5.8574    1.6961   50.4465 C.3     1  ZINC000298969660    0.0400
     21 C21        -7.0574    1.5476   51.3460 C.2     1  ZINC000298969660    0.5100
     22 O22        -8.0594    2.1968   51.1324 O.2     1  ZINC000298969660   -0.4900
     23 N23        -7.0170    0.6935   52.3877 N.am    1  ZINC000298969660   -0.6700
     24 C24        -8.1313    0.5556   53.2230 C.ar    1  ZINC000298969660    0.1400
     25 C25        -8.7834   -0.6668   53.3171 C.ar    1  ZINC000298969660   -0.1400
     26 C26        -9.8828   -0.7996   54.1423 C.ar    1  ZINC000298969660   -0.1000
     27 C27       -10.3348    0.2832   54.8740 C.ar    1  ZINC000298969660   -0.1300
     28 C28        -9.6879    1.5020   54.7822 C.ar    1  ZINC000298969660   -0.1000
     29 C29        -8.5838    1.6395   53.9638 C.ar    1  ZINC000298969660   -0.1200
     30 C30        -3.4835    2.2560   49.2660 C.ar    1  ZINC000298969660   -0.1500
     31 H31        -2.5453   -0.1441   44.2134 H       1  ZINC000298969660    0.0600
     32 H32        -1.9212    1.5127   44.0291 H       1  ZINC000298969660    0.0700
     33 H33        -0.8303    0.1221   43.8183 H       1  ZINC000298969660    0.0800
     34 H34        -0.5758   -0.5001   47.4437 H       1  ZINC000298969660    0.1000
     35 H35        -0.5924   -1.4049   45.9110 H       1  ZINC000298969660    0.0900
     36 H36         0.6885    1.9717   46.9483 H       1  ZINC000298969660    0.0800
     37 H37         1.3653    0.7698   48.0751 H       1  ZINC000298969660    0.0700
     38 H38         3.0631    2.4717   47.3735 H       1  ZINC000298969660    0.0700
     39 H39         3.5175    0.8224   46.8760 H       1  ZINC000298969660    0.0600
     40 H40         2.1770    2.9327   45.1213 H       1  ZINC000298969660    0.0700
     41 H41         3.8679    2.3855   45.0037 H       1  ZINC000298969660    0.0700
     42 H42         2.4029    1.2588   43.3237 H       1  ZINC000298969660    0.0900
     43 H43         3.1122    0.0993   44.4731 H       1  ZINC000298969660    0.0400
     44 H44        -1.0072    0.8642   48.2852 H       1  ZINC000298969660    0.4100
     45 H45        -0.5567    3.8199   48.6107 H       1  ZINC000298969660    0.1300
     46 H46        -1.5903    5.5154   50.0634 H       1  ZINC000298969660    0.1300
     47 H47        -3.8285    5.1314   51.0092 H       1  ZINC000298969660    0.1300
     48 H48        -6.1622    1.5607   49.4088 H       1  ZINC000298969660    0.1000
     49 H49        -5.1125    0.9443   50.7075 H       1  ZINC000298969660    0.1000
     50 H50        -6.2157    0.1743   52.5585 H       1  ZINC000298969660    0.4100
     51 H51        -8.4312   -1.5127   52.7453 H       1  ZINC000298969660    0.1300
     52 H52       -10.3903   -1.7501   54.2160 H       1  ZINC000298969660    0.1300
     53 H53       -11.1950    0.1769   55.5183 H       1  ZINC000298969660    0.1200
     54 H54       -10.0437    2.3460   55.3544 H       1  ZINC000298969660    0.1300
     55 H55        -8.0791    2.5916   53.8924 H       1  ZINC000298969660    0.1300
     56 H56        -4.0135    1.3417   49.0441 H       1  ZINC000298969660    0.1500
@<TRIPOS>BOND
     1     1     2    1
     2     1    31    1
     3     1    32    1
     4     1    33    1
     5     2     3    1
     6     2    11   am
     7     3     4    1
     8     3    34    1
     9     3    35    1
    10     4     5    1
    11     4    10    1
    12     4     6    1
    13     6     7    1
    14     6    36    1
    15     6    37    1
    16     7     8    1
    17     7    38    1
    18     7    39    1
    19     8     9    1
    20     8    40    1
    21     8    41    1
    22     9    10    1
    23     9    42    1
    24     9    43    1
    25    11    12    2
    26    11    13   am
    27    13    14    1
    28    13    44    1
    29    14    30   ar
    30    14    15   ar
    31    15    16   ar
    32    15    45    1
    33    16    17   ar
    34    16    46    1
    35    17    18   ar
    36    17    47    1
    37    18    19    1
    38    18    30   ar
    39    19    20    1
    40    20    21    1
    41    20    48    1
    42    20    49    1
    43    21    22    2
    44    21    23   am
    45    23    24    1
    46    23    50    1
    47    24    29   ar
    48    24    25   ar
    49    25    26   ar
    50    25    51    1
    51    26    27   ar
    52    26    52    1
    53    27    28   ar
    54    27    53    1
    55    28    29   ar
    56    28    54    1
    57    29    55    1
    58    30    56    1
@<TRIPOS>SUBSTRUCTURE
     1 ZINC000298969660        1 TEMP              0 ****  ****    0 ROOT


##########                                Name:    ZINC001124460178
##########                DOCK_Rotatable_Bonds:                  12
##########                         Heavy_Atoms:                  22
##########                    Molecular_Weight:             328.479
##########                DOCK_Rotatable_Bonds:                  12
##########                       Formal_Charge:          -0.0100003
##########                     HBond_Acceptors:                   7
##########                        HBond_Donors:                   2
##########                         Heavy_Atoms:                  22
##########                          Grid_Score:          -33.264202
##########                     Grid_vdw_energy:          -31.674423
##########                      Grid_es_energy:           -1.589778
##########           Internal_energy_repulsive:           18.566206

@<TRIPOS>MOLECULE
ZINC001124460178
 50 50 1 0 0
SMALL
USER_CHARGES


@<TRIPOS>ATOM
      1 C1        -10.0553   -0.8606   54.2211 C.3     1  ZINC001124460178   -0.0700
      2 C2         -8.7278   -0.2023   53.9459 C.2     1  ZINC001124460178    0.3100
      3 N3         -8.0666    0.3971   54.8928 N.2     1  ZINC001124460178   -0.5000
      4 S4         -6.6508    0.9901   54.1633 S.3     1  ZINC001124460178    0.1800
      5 C5         -7.0393    0.3849   52.5975 C.2     1  ZINC001124460178    0.3400
      6 N6         -6.2922    0.5040   51.4395 N.pl3   1  ZINC001124460178   -0.6600
      7 C7         -5.3313    1.6006   51.2972 C.3     1  ZINC001124460178    0.0900
      8 C8         -5.0150    1.8125   49.8154 C.3     1  ZINC001124460178    0.0800
      9 H9         -4.9676    0.8467   49.3122 H       1  ZINC001124460178    0.1200
     10 O10        -6.0395    2.6105   49.2191 O.3     1  ZINC001124460178   -0.5500
     11 C11        -3.6683    2.5256   49.6783 C.3     1  ZINC001124460178    0.0900
     12 N12        -2.6819    1.6019   49.1124 N.am    1  ZINC001124460178   -0.6100
     13 C13        -1.9434    0.6909   49.9904 C.3     1  ZINC001124460178    0.0800
     14 C14        -2.4538    1.5905   47.7842 C.2     1  ZINC001124460178    0.5100
     15 O15        -3.0640    2.3458   47.0575 O.2     1  ZINC001124460178   -0.5400
     16 C16        -1.4404    0.6391   47.2019 C.3     1  ZINC001124460178   -0.1400
     17 C17        -1.3852    0.8193   45.6835 C.3     1  ZINC001124460178   -0.1100
     18 C18        -0.5058    2.0246   45.3446 C.3     1  ZINC001124460178   -0.1200
     19 C19         0.9441    1.5664   45.1756 C.3     1  ZINC001124460178   -0.1200
     20 C20         1.8323    2.7792   44.8905 C.3     1  ZINC001124460178   -0.1000
     21 C21         3.2825    2.3211   44.7228 C.3     1  ZINC001124460178   -0.1500
     22 C22         1.3623    3.4648   43.6060 C.3     1  ZINC001124460178   -0.1500
     23 N23        -8.1991   -0.2202   52.7444 N.2     1  ZINC001124460178   -0.5800
     24 H24        -9.8928   -1.8982   54.5127 H       1  ZINC001124460178    0.0900
     25 H25       -10.5629   -0.3317   55.0277 H       1  ZINC001124460178    0.0900
     26 H26       -10.6703   -0.8281   53.3217 H       1  ZINC001124460178    0.0900
     27 H27        -6.4047   -0.1386   50.7216 H       1  ZINC001124460178    0.4200
     28 H28        -5.7580    2.5138   51.7119 H       1  ZINC001124460178    0.0800
     29 H29        -4.4147    1.3522   51.8325 H       1  ZINC001124460178    0.0900
     30 H30        -5.7491    3.1063   48.4412 H       1  ZINC001124460178    0.3800
     31 H31        -3.7788    3.3872   49.0198 H       1  ZINC001124460178    0.0900
     32 H32        -3.3323    2.8593   50.6599 H       1  ZINC001124460178    0.1000
     33 H33        -2.4937   -0.2449   50.0883 H       1  ZINC001124460178    0.0600
     34 H34        -0.9606    0.4916   49.5631 H       1  ZINC001124460178    0.0800
     35 H35        -1.8265    1.1482   50.9728 H       1  ZINC001124460178    0.0800
     36 H36        -0.4592    0.8476   47.6284 H       1  ZINC001124460178    0.0900
     37 H37        -1.7278   -0.3860   47.4359 H       1  ZINC001124460178    0.0900
     38 H38        -0.9654   -0.0768   45.2263 H       1  ZINC001124460178    0.0700
     39 H39        -2.3921    0.9850   45.3004 H       1  ZINC001124460178    0.0700
     40 H40        -0.8538    2.4789   44.4169 H       1  ZINC001124460178    0.0600
     41 H41        -0.5643    2.7553   46.1513 H       1  ZINC001124460178    0.0600
     42 H42         1.2796    1.0774   46.0902 H       1  ZINC001124460178    0.0600
     43 H43         1.0090    0.8650   44.3438 H       1  ZINC001124460178    0.0600
     44 H44         1.7668    3.4810   45.7219 H       1  ZINC001124460178    0.0700
     45 H45         3.3480    1.6193   43.8913 H       1  ZINC001124460178    0.0500
     46 H46         3.9152    3.1852   44.5196 H       1  ZINC001124460178    0.0500
     47 H47         3.6174    1.8327   45.6378 H       1  ZINC001124460178    0.0500
     48 H48         0.3291    3.7911   43.7255 H       1  ZINC001124460178    0.0600
     49 H49         1.9949    4.3289   43.4029 H       1  ZINC001124460178    0.0500
     50 H50         1.4277    2.7630   42.7747 H       1  ZINC001124460178    0.0500
@<TRIPOS>BOND
     1     1     2    1
     2     1    24    1
     3     1    25    1
     4     1    26    1
     5     2    23    1
     6     2     3    2
     7     3     4    1
     8     4     5    1
     9     5     6    1
    10     5    23    2
    11     6     7    1
    12     6    27    1
    13     7     8    1
    14     7    28    1
    15     7    29    1
    16     8     9    1
    17     8    10    1
    18     8    11    1
    19    10    30    1
    20    11    12    1
    21    11    31    1
    22    11    32    1
    23    12    13    1
    24    12    14   am
    25    13    33    1
    26    13    34    1
    27    13    35    1
    28    14    15    2
    29    14    16    1
    30    16    17    1
    31    16    36    1
    32    16    37    1
    33    17    18    1
    34    17    38    1
    35    17    39    1
    36    18    19    1
    37    18    40    1
    38    18    41    1
    39    19    20    1
    40    19    42    1
    41    19    43    1
    42    20    21    1
    43    20    22    1
    44    20    44    1
    45    21    45    1
    46    21    46    1
    47    21    47    1
    48    22    48    1
    49    22    49    1
    50    22    50    1
@<TRIPOS>SUBSTRUCTURE
     1 ZINC001124460178        1 TEMP              0 ****  ****    0 ROOT


##########                                Name:    ZINC000762020937
##########                DOCK_Rotatable_Bonds:                  10
##########                         Heavy_Atoms:                  28
##########                    Molecular_Weight:             391.467
##########                DOCK_Rotatable_Bonds:                  10
##########                       Formal_Charge:         -1.8999e-07
##########                     HBond_Acceptors:                   8
##########                        HBond_Donors:                   1
##########                         Heavy_Atoms:                  28
##########                          Grid_Score:          -33.257011
##########                     Grid_vdw_energy:          -32.976196
##########                      Grid_es_energy:           -0.280814
##########           Internal_energy_repulsive:           48.751694

@<TRIPOS>MOLECULE
ZINC000762020937
 57 58 1 0 0
SMALL
USER_CHARGES


@<TRIPOS>ATOM
      1 C1        -10.8400   -1.3670   58.0648 C.3     1  ZINC000762020937    0.0200
      2 O2         -9.7390   -1.7287   57.2286 O.3     1  ZINC000762020937   -0.3000
      3 C3         -9.6145   -1.0629   56.0495 C.ar    1  ZINC000762020937    0.1100
      4 C4        -10.2348   -1.5476   54.9097 C.ar    1  ZINC000762020937   -0.1700
      5 C5        -10.1075   -0.8691   53.7115 C.ar    1  ZINC000762020937   -0.1000
      6 C6         -9.3618    0.2928   53.6477 C.ar    1  ZINC000762020937   -0.1000
      7 C7         -9.2260    1.0281   52.3392 C.3     1  ZINC000762020937    0.0200
      8 C8         -7.8130    0.8950   51.8326 C.2     1  ZINC000762020937    0.1900
      9 N9         -6.9490    1.8670   51.6641 N.2     1  ZINC000762020937   -0.4700
     10 C10        -5.8313    1.2812   51.1989 C.2     1  ZINC000762020937    0.1600
     11 C11        -4.5411    1.9754   50.8461 C.3     1  ZINC000762020937    0.2600
     12 H12        -3.7071    1.4516   51.3132 H       1  ZINC000762020937    0.1200
     13 N13        -4.3666    1.9721   49.3915 N.am    1  ZINC000762020937   -0.7100
     14 C14        -3.1424    1.7840   48.8600 C.2     1  ZINC000762020937    0.6600
     15 O15        -2.1836    1.6158   49.5873 O.2     1  ZINC000762020937   -0.5600
     16 O16        -2.9819    1.7825   47.5233 O.3     1  ZINC000762020937   -0.3600
     17 C17        -1.6383    1.5566   47.0210 C.3     1  ZINC000762020937    0.1400
     18 C18        -0.7071    2.6516   47.5451 C.3     1  ZINC000762020937   -0.1800
     19 C19        -1.1386    0.1911   47.4970 C.3     1  ZINC000762020937   -0.1400
     20 C20        -1.6535    1.5892   45.4913 C.3     1  ZINC000762020937   -0.1800
     21 C21        -4.5839    3.4190   51.3512 C.3     1  ZINC000762020937   -0.1000
     22 C22        -3.1871    3.8395   51.8126 C.3     1  ZINC000762020937   -0.1400
     23 C23        -5.0471    4.3411   50.2216 C.3     1  ZINC000762020937   -0.1400
     24 N24        -6.0680    0.0066   51.1098 N.2     1  ZINC000762020937   -0.3700
     25 O25        -7.1990   -0.2368   51.4746 O.3     1  ZINC000762020937    0.0900
     26 C26        -8.7404    0.7824   54.7819 C.ar    1  ZINC000762020937   -0.1500
     27 C27        -8.8681    0.1104   55.9865 C.ar    1  ZINC000762020937    0.1000
     28 O28        -8.2577    0.5904   57.1027 O.3     1  ZINC000762020937   -0.3100
     29 C29        -7.2722    1.6084   56.9164 C.3     1  ZINC000762020937    0.0200
     30 H30       -10.7635   -0.3127   58.3305 H       1  ZINC000762020937    0.0600
     31 H31       -11.7743   -1.5402   57.5306 H       1  ZINC000762020937    0.0600
     32 H32       -10.8222   -1.9723   58.9711 H       1  ZINC000762020937    0.1000
     33 H33       -10.8175   -2.4557   54.9567 H       1  ZINC000762020937    0.1400
     34 H34       -10.5916   -1.2481   52.8236 H       1  ZINC000762020937    0.1300
     35 H35        -9.9151    0.6023   51.6099 H       1  ZINC000762020937    0.1200
     36 H36        -9.4606    2.0821   52.4887 H       1  ZINC000762020937    0.1200
     37 H37        -5.1322    2.1051   48.8108 H       1  ZINC000762020937    0.4100
     38 H38        -0.6963    2.6285   48.6348 H       1  ZINC000762020937    0.0600
     39 H39         0.3014    2.4821   47.1681 H       1  ZINC000762020937    0.0700
     40 H40        -1.0631    3.6244   47.2059 H       1  ZINC000762020937    0.0900
     41 H41        -1.8020   -0.5889   47.1236 H       1  ZINC000762020937    0.0700
     42 H42        -0.1300    0.0217   47.1200 H       1  ZINC000762020937    0.0800
     43 H43        -1.1278    0.1680   48.5867 H       1  ZINC000762020937    0.0700
     44 H44        -2.0095    2.5620   45.1522 H       1  ZINC000762020937    0.0900
     45 H45        -0.6450    1.4197   45.1143 H       1  ZINC000762020937    0.0700
     46 H46        -2.3169    0.8091   45.1179 H       1  ZINC000762020937    0.0600
     47 H47        -5.2797    3.4909   52.1873 H       1  ZINC000762020937    0.0800
     48 H48        -2.4914    3.7676   50.9766 H       1  ZINC000762020937    0.0600
     49 H49        -3.2176    4.8679   52.1725 H       1  ZINC000762020937    0.0600
     50 H50        -2.8572    3.1825   52.6173 H       1  ZINC000762020937    0.0500
     51 H51        -6.0423    4.0415   49.8929 H       1  ZINC000762020937    0.0500
     52 H52        -5.0776    5.3695   50.5815 H       1  ZINC000762020937    0.0600
     53 H53        -4.3514    4.2692   49.3857 H       1  ZINC000762020937    0.0700
     54 H54        -8.1582    1.6905   54.7292 H       1  ZINC000762020937    0.1400
     55 H55        -7.7301    2.4740   56.4376 H       1  ZINC000762020937    0.0600
     56 H56        -6.8649    1.9014   57.8840 H       1  ZINC000762020937    0.1000
     57 H57        -6.4699    1.2262   56.2852 H       1  ZINC000762020937    0.0600
@<TRIPOS>BOND
     1     1     2    1
     2     1    30    1
     3     1    31    1
     4     1    32    1
     5     2     3    1
     6     3    27   ar
     7     3     4   ar
     8     4     5   ar
     9     4    33    1
    10     5     6   ar
    11     5    34    1
    12     6     7    1
    13     6    26   ar
    14     7     8    1
    15     7    35    1
    16     7    36    1
    17     8    25    1
    18     8     9    2
    19     9    10    1
    20    10    11    1
    21    10    24    2
    22    11    12    1
    23    11    13    1
    24    11    21    1
    25    13    14   am
    26    13    37    1
    27    14    15    2
    28    14    16    1
    29    16    17    1
    30    17    18    1
    31    17    19    1
    32    17    20    1
    33    18    38    1
    34    18    39    1
    35    18    40    1
    36    19    41    1
    37    19    42    1
    38    19    43    1
    39    20    44    1
    40    20    45    1
    41    20    46    1
    42    21    22    1
    43    21    23    1
    44    21    47    1
    45    22    48    1
    46    22    49    1
    47    22    50    1
    48    23    51    1
    49    23    52    1
    50    23    53    1
    51    24    25    1
    52    26    27   ar
    53    26    54    1
    54    27    28    1
    55    28    29    1
    56    29    55    1
    57    29    56    1
    58    29    57    1
@<TRIPOS>SUBSTRUCTURE
     1 ZINC000762020937        1 TEMP              0 ****  ****    0 ROOT


##########                                Name:    ZINC001105793963
##########                DOCK_Rotatable_Bonds:                   9
##########                         Heavy_Atoms:                  24
##########                    Molecular_Weight:             337.422
##########                DOCK_Rotatable_Bonds:                   9
##########                       Formal_Charge:          -0.0100003
##########                     HBond_Acceptors:                   8
##########                        HBond_Donors:                   2
##########                         Heavy_Atoms:                  24
##########                          Grid_Score:          -33.243828
##########                     Grid_vdw_energy:          -30.636072
##########                      Grid_es_energy:           -2.607756
##########           Internal_energy_repulsive:            8.025740

@<TRIPOS>MOLECULE
ZINC001105793963
 51 52 1 0 0
SMALL
USER_CHARGES


@<TRIPOS>ATOM
      1 C1        -10.2560    2.9273   67.1064 C.3     1  ZINC001105793963   -0.1500
      2 C2        -10.1089    1.5550   67.7669 C.3     1  ZINC001105793963   -0.0300
      3 C3         -9.2629    0.6650   66.8931 C.2     1  ZINC001105793963    0.1800
      4 N4         -9.1651    0.7186   65.5866 N.2     1  ZINC001105793963   -0.4800
      5 C5         -8.3046   -0.2580   65.2477 C.2     1  ZINC001105793963    0.1700
      6 C6         -7.8567   -0.6074   63.8519 C.3     1  ZINC001105793963    0.1500
      7 N7         -8.9499   -0.3444   62.9066 N.3     1  ZINC001105793963   -0.6900
      8 C8         -8.5776   -0.7510   61.5449 C.3     1  ZINC001105793963    0.0700
      9 C9         -9.8251   -0.7707   60.6595 C.3     1  ZINC001105793963   -0.1000
     10 H10       -10.2208    0.2381   60.5410 H       1  ZINC001105793963    0.1000
     11 C11       -10.8986   -1.7005   61.2650 C.3     1  ZINC001105793963    0.1100
     12 N12       -11.5293   -2.3551   60.0952 N.am    1  ZINC001105793963   -0.6200
     13 C13       -12.8344   -2.6345   59.9083 C.2     1  ZINC001105793963    0.5300
     14 O14       -13.6456   -2.3406   60.7605 O.2     1  ZINC001105793963   -0.5300
     15 C15       -13.2857   -3.3124   58.6402 C.3     1  ZINC001105793963    0.1300
     16 H16       -12.5816   -4.1028   58.3803 H       1  ZINC001105793963    0.1100
     17 C17       -14.6754   -3.9164   58.8515 C.3     1  ZINC001105793963   -0.1600
     18 N18       -13.3400   -2.3304   57.5543 N.am    1  ZINC001105793963   -0.7200
     19 C19       -13.1867   -2.7298   56.2763 C.2     1  ZINC001105793963    0.5200
     20 C20       -13.2408   -1.7195   55.1594 C.3     1  ZINC001105793963   -0.1700
     21 O21       -13.0051   -3.9023   56.0250 O.2     1  ZINC001105793963   -0.5500
     22 C22       -10.3999   -2.6327   59.1775 C.3     1  ZINC001105793963    0.1000
     23 C23        -9.4957   -1.3827   59.2820 C.3     1  ZINC001105793963   -0.1000
     24 H24        -8.4452   -1.6700   59.2368 H       1  ZINC001105793963    0.0900
     25 C25        -9.8243   -0.3934   58.1621 C.3     1  ZINC001105793963   -0.1500
     26 N26        -7.9300   -0.8447   66.3450 N.2     1  ZINC001105793963   -0.3700
     27 O27        -8.4647   -0.3256   67.3022 O.3     1  ZINC001105793963    0.0800
     28 H28        -9.2709    3.3757   66.9770 H       1  ZINC001105793963    0.0600
     29 H29       -10.7339    2.8129   66.1335 H       1  ZINC001105793963    0.0600
     30 H30       -10.8679    3.5709   67.7384 H       1  ZINC001105793963    0.0800
     31 H31        -9.6310    1.6694   68.7398 H       1  ZINC001105793963    0.1100
     32 H32       -11.0940    1.1067   67.8964 H       1  ZINC001105793963    0.1000
     33 H33        -6.9917   -0.0003   63.5852 H       1  ZINC001105793963    0.1000
     34 H34        -7.5865   -1.6627   63.8105 H       1  ZINC001105793963    0.0700
     35 H35        -9.8000   -0.8014   63.2006 H       1  ZINC001105793963    0.3500
     36 H36        -7.8551   -0.0430   61.1390 H       1  ZINC001105793963    0.0800
     37 H37        -8.1350   -1.7468   61.5712 H       1  ZINC001105793963    0.0400
     38 H38       -10.4351   -2.4446   61.9128 H       1  ZINC001105793963    0.0700
     39 H39       -11.6360   -1.1196   61.8189 H       1  ZINC001105793963    0.0900
     40 H40       -15.0019   -4.4066   57.9343 H       1  ZINC001105793963    0.0800
     41 H41       -14.6350   -4.6470   59.6595 H       1  ZINC001105793963    0.0800
     42 H42       -15.3795   -3.1259   59.1114 H       1  ZINC001105793963    0.0600
     43 H43       -13.4865   -1.3928   57.7552 H       1  ZINC001105793963    0.4100
     44 H44       -13.4102   -0.7264   55.5757 H       1  ZINC001105793963    0.0800
     45 H45       -12.2966   -1.7289   54.6149 H       1  ZINC001105793963    0.1000
     46 H46       -14.0547   -1.9722   54.4800 H       1  ZINC001105793963    0.1000
     47 H47        -9.8586   -3.5225   59.4993 H       1  ZINC001105793963    0.0800
     48 H48       -10.7611   -2.7551   58.1564 H       1  ZINC001105793963    0.0900
     49 H49       -10.8736   -0.1057   58.2277 H       1  ZINC001105793963    0.0600
     50 H50        -9.1975    0.4925   58.2644 H       1  ZINC001105793963    0.0600
     51 H51        -9.6359   -0.8623   57.1963 H       1  ZINC001105793963    0.0600
@<TRIPOS>BOND
     1     1     2    1
     2     1    28    1
     3     1    29    1
     4     1    30    1
     5     2     3    1
     6     2    31    1
     7     2    32    1
     8     3    27    1
     9     3     4    2
    10     4     5    1
    11     5     6    1
    12     5    26    2
    13     6     7    1
    14     6    33    1
    15     6    34    1
    16     7     8    1
    17     7    35    1
    18     8     9    1
    19     8    36    1
    20     8    37    1
    21     9    10    1
    22     9    23    1
    23     9    11    1
    24    11    12    1
    25    11    38    1
    26    11    39    1
    27    12    13   am
    28    12    22    1
    29    13    14    2
    30    13    15    1
    31    15    16    1
    32    15    17    1
    33    15    18    1
    34    17    40    1
    35    17    41    1
    36    17    42    1
    37    18    19   am
    38    18    43    1
    39    19    20    1
    40    19    21    2
    41    20    44    1
    42    20    45    1
    43    20    46    1
    44    22    23    1
    45    22    47    1
    46    22    48    1
    47    23    24    1
    48    23    25    1
    49    25    49    1
    50    25    50    1
    51    25    51    1
    52    26    27    1
@<TRIPOS>SUBSTRUCTURE
     1 ZINC001105793963        1 TEMP              0 ****  ****    0 ROOT


##########                                Name:    ZINC000621594459
##########                DOCK_Rotatable_Bonds:                  10
##########                         Heavy_Atoms:                  25
##########                    Molecular_Weight:             389.497
##########                DOCK_Rotatable_Bonds:                  10
##########                       Formal_Charge:         -7.7486e-07
##########                     HBond_Acceptors:                  10
##########                        HBond_Donors:                   3
##########                         Heavy_Atoms:                  25
##########                          Grid_Score:          -33.229805
##########                     Grid_vdw_energy:          -33.344742
##########                      Grid_es_energy:            0.114938
##########           Internal_energy_repulsive:            6.249103

@<TRIPOS>MOLECULE
ZINC000621594459
 48 49 1 0 0
SMALL
USER_CHARGES


@<TRIPOS>ATOM
      1 C1         -5.9422    1.3994   51.9988 C.3     1  ZINC000621594459   -0.1600
      2 C2         -7.1456    0.5292   51.6305 C.3     1  ZINC000621594459    0.1300
      3 C3         -6.6586   -0.8467   51.1715 C.3     1  ZINC000621594459   -0.1800
      4 N4         -8.0131    0.3748   52.8009 N.am    1  ZINC000621594459   -1.1100
      5 S5         -9.6582    0.3466   52.6142 S.o2    1  ZINC000621594459    2.6200
      6 O6         -9.9761    1.6374   52.1120 O.2     1  ZINC000621594459   -0.9500
      7 O7         -9.9033   -0.8207   51.8418 O.2     1  ZINC000621594459   -0.9400
      8 C8        -10.3014    0.1424   54.2980 C.3     1  ZINC000621594459   -0.6600
      9 C9         -9.7959   -1.1792   54.8802 C.3     1  ZINC000621594459    0.1300
     10 N10       -10.3158   -1.3445   56.2397 N.am    1  ZINC000621594459   -0.7200
     11 C11       -10.7126   -2.5598   56.6663 C.2     1  ZINC000621594459    0.5600
     12 O12       -10.6376   -3.5190   55.9235 O.2     1  ZINC000621594459   -0.5200
     13 C13       -11.2390   -2.7263   58.0379 C.ar    1  ZINC000621594459   -0.1500
     14 C14       -10.3856   -2.6050   59.1355 C.ar    1  ZINC000621594459   -0.0300
     15 C15       -10.8833   -2.7611   60.4130 C.ar    1  ZINC000621594459   -0.1400
     16 C16       -12.2249   -3.0377   60.6069 C.ar    1  ZINC000621594459    0.0100
     17 C17       -13.0761   -3.1597   59.5228 C.ar    1  ZINC000621594459   -0.6800
     18 S18       -14.7830   -3.5128   59.7809 S.o2    1  ZINC000621594459    2.7000
     19 O19       -15.1811   -4.3680   58.7181 O.2     1  ZINC000621594459   -0.9400
     20 O20       -14.9177   -3.8621   61.1517 O.2     1  ZINC000621594459   -0.9500
     21 N21       -15.6134   -2.0947   59.5760 N.am    1  ZINC000621594459   -1.0900
     22 C22       -15.3201   -0.9437   60.4335 C.3     1  ZINC000621594459    0.0800
     23 C23       -14.7152    0.2953   59.7704 C.3     1  ZINC000621594459   -0.1800
     24 C24       -16.1702    0.3141   60.2429 C.3     1  ZINC000621594459   -0.1900
     25 C25       -12.5927   -2.9999   58.2409 C.ar    1  ZINC000621594459    0.0400
     26 H26        -5.2968    1.5143   51.1280 H       1  ZINC000621594459    0.0700
     27 H27        -6.2892    2.3796   52.3258 H       1  ZINC000621594459    0.0700
     28 H28        -5.3834    0.9242   52.8051 H       1  ZINC000621594459    0.0600
     29 H29        -7.7044    1.0044   50.8242 H       1  ZINC000621594459    0.0900
     30 H30        -6.0998   -1.3219   51.9778 H       1  ZINC000621594459    0.0700
     31 H31        -7.5159   -1.4667   50.9092 H       1  ZINC000621594459    0.0600
     32 H32        -6.0131   -0.7318   50.3007 H       1  ZINC000621594459    0.0700
     33 H33        -7.6237    0.2890   53.6852 H       1  ZINC000621594459    0.4200
     34 H34        -9.9583    0.9685   54.9206 H       1  ZINC000621594459    0.1400
     35 H35       -11.3910    0.1348   54.2722 H       1  ZINC000621594459    0.1400
     36 H36       -10.1386   -2.0054   54.2572 H       1  ZINC000621594459    0.0900
     37 H37        -8.7062   -1.1715   54.9062 H       1  ZINC000621594459    0.0900
     38 H38       -10.3744   -0.5793   56.8330 H       1  ZINC000621594459    0.4000
     39 H39        -9.3380   -2.3897   58.9854 H       1  ZINC000621594459    0.1300
     40 H40       -10.2241   -2.6675   61.2632 H       1  ZINC000621594459    0.1400
     41 H41       -12.6093   -3.1594   61.6087 H       1  ZINC000621594459    0.1500
     42 H42       -16.2939   -2.0262   58.8881 H       1  ZINC000621594459    0.4200
     43 H43       -14.9948   -1.1826   61.4460 H       1  ZINC000621594459    0.1400
     44 H44       -13.9914    0.8718   60.3466 H       1  ZINC000621594459    0.1100
     45 H45       -14.5353    0.2541   58.6961 H       1  ZINC000621594459    0.1000
     46 H46       -16.9477    0.2851   59.4794 H       1  ZINC000621594459    0.1000
     47 H47       -16.4039    0.9028   61.1299 H       1  ZINC000621594459    0.1000
     48 H48       -13.2582   -3.0950   57.3957 H       1  ZINC000621594459    0.1600
@<TRIPOS>BOND
     1     1     2    1
     2     1    26    1
     3     1    27    1
     4     1    28    1
     5     2     3    1
     6     2     4    1
     7     2    29    1
     8     3    30    1
     9     3    31    1
    10     3    32    1
    11     4     5   am
    12     4    33    1
    13     5     6    2
    14     5     7    2
    15     5     8    1
    16     8     9    1
    17     8    34    1
    18     8    35    1
    19     9    10    1
    20     9    36    1
    21     9    37    1
    22    10    11   am
    23    10    38    1
    24    11    12    2
    25    11    13    1
    26    13    25   ar
    27    13    14   ar
    28    14    15   ar
    29    14    39    1
    30    15    16   ar
    31    15    40    1
    32    16    17   ar
    33    16    41    1
    34    17    18    1
    35    17    25   ar
    36    18    19    2
    37    18    20    2
    38    18    21   am
    39    21    22    1
    40    21    42    1
    41    22    24    1
    42    22    23    1
    43    22    43    1
    44    23    24    1
    45    23    44    1
    46    23    45    1
    47    24    46    1
    48    24    47    1
    49    25    48    1
@<TRIPOS>SUBSTRUCTURE
     1 ZINC000621594459        1 TEMP              0 ****  ****    0 ROOT


##########                                Name:    ZINC000463741321
##########                DOCK_Rotatable_Bonds:                   7
##########                         Heavy_Atoms:                  26
##########                    Molecular_Weight:             354.467
##########                DOCK_Rotatable_Bonds:                   7
##########                       Formal_Charge:         -6.4075e-07
##########                     HBond_Acceptors:                   4
##########                        HBond_Donors:                   1
##########                         Heavy_Atoms:                  26
##########                          Grid_Score:          -33.215374
##########                     Grid_vdw_energy:          -33.029026
##########                      Grid_es_energy:           -0.186349
##########           Internal_energy_repulsive:           11.258086

@<TRIPOS>MOLECULE
ZINC000463741321
 53 55 1 0 0
SMALL
USER_CHARGES


@<TRIPOS>ATOM
      1 C1         -7.6001    4.0083   51.4651 C.3     1  ZINC000463741321   -0.1500
      2 C2         -6.6294    2.8341   51.3237 C.3     1  ZINC000463741321   -0.1100
      3 H3         -6.1625    2.6305   52.2874 H       1  ZINC000463741321    0.1000
      4 C4         -7.3935    1.5942   50.8551 C.3     1  ZINC000463741321   -0.0900
      5 C5         -6.8286    0.3539   51.5504 C.3     1  ZINC000463741321   -0.0800
      6 C6         -7.5136    0.1673   52.8796 C.ar    1  ZINC000463741321   -0.1200
      7 C7         -8.7788   -0.3854   52.9335 C.ar    1  ZINC000463741321   -0.0900
      8 C8         -9.4077   -0.5567   54.1530 C.ar    1  ZINC000463741321   -0.1300
      9 C9         -8.7717   -0.1749   55.3193 C.ar    1  ZINC000463741321   -0.1000
     10 C10        -7.5063    0.3786   55.2678 C.ar    1  ZINC000463741321   -0.1500
     11 C11        -6.8730    0.5445   54.0480 C.ar    1  ZINC000463741321    0.1000
     12 F12        -5.6361    1.0855   53.9964 F       1  ZINC000463741321   -0.1400
     13 C13        -5.5659    3.1803   50.3136 C.2     1  ZINC000463741321    0.5200
     14 O14        -5.8696    3.7380   49.2802 O.2     1  ZINC000463741321   -0.5300
     15 N15        -4.2774    2.8704   50.5585 N.am    1  ZINC000463741321   -0.7300
     16 C16        -3.2438    3.2055   49.5758 C.3     1  ZINC000463741321    0.1500
     17 H17        -3.5688    4.0604   48.9830 H       1  ZINC000463741321    0.1000
     18 C18        -1.9412    3.5526   50.3020 C.3     1  ZINC000463741321   -0.1300
     19 C19        -0.8508    3.8428   49.2669 C.3     1  ZINC000463741321   -0.1200
     20 C20        -0.6816    2.6247   48.3561 C.3     1  ZINC000463741321    0.0600
     21 N21        -1.9546    2.3340   47.6841 N.3     1  ZINC000463741321   -0.4800
     22 C22        -1.8030    1.3103   46.7461 C.ar    1  ZINC000463741321    0.1100
     23 C23        -1.4298    0.0375   47.1590 C.ar    1  ZINC000463741321   -0.1700
     24 C24        -1.2813   -0.9726   46.2290 C.ar    1  ZINC000463741321   -0.0900
     25 C25        -1.5031   -0.7180   44.8880 C.ar    1  ZINC000463741321   -0.1500
     26 C26        -1.8747    0.5478   44.4735 C.ar    1  ZINC000463741321   -0.0900
     27 C27        -2.0305    1.5611   45.3989 C.ar    1  ZINC000463741321   -0.1400
     28 C28        -3.0060    2.0062   48.6554 C.3     1  ZINC000463741321    0.0500
     29 H29        -8.0669    4.2119   50.5014 H       1  ZINC000463741321    0.0600
     30 H30        -8.3692    3.7578   52.1957 H       1  ZINC000463741321    0.0700
     31 H31        -7.0557    4.8916   51.7990 H       1  ZINC000463741321    0.0600
     32 H32        -8.4490    1.7018   51.1052 H       1  ZINC000463741321    0.0700
     33 H33        -7.2850    1.4869   49.7758 H       1  ZINC000463741321    0.0700
     34 H34        -7.0016   -0.5229   50.9263 H       1  ZINC000463741321    0.0800
     35 H35        -5.7578    0.4819   51.7082 H       1  ZINC000463741321    0.0800
     36 H36        -9.2769   -0.6834   52.0228 H       1  ZINC000463741321    0.1300
     37 H37       -10.3966   -0.9888   54.1941 H       1  ZINC000463741321    0.1300
     38 H38        -9.2640   -0.3088   56.2713 H       1  ZINC000463741321    0.1300
     39 H39        -7.0099    0.6775   56.1792 H       1  ZINC000463741321    0.1400
     40 H40        -4.0343    2.4256   51.3855 H       1  ZINC000463741321    0.4000
     41 H41        -2.0953    4.4332   50.9255 H       1  ZINC000463741321    0.0700
     42 H42        -1.6369    2.7121   50.9258 H       1  ZINC000463741321    0.0600
     43 H43        -1.1378    4.7076   48.6687 H       1  ZINC000463741321    0.0800
     44 H44         0.0900    4.0488   49.7775 H       1  ZINC000463741321    0.0800
     45 H45         0.0841    2.8335   47.6090 H       1  ZINC000463741321    0.0900
     46 H46        -0.3812    1.7636   48.9531 H       1  ZINC000463741321    0.0500
     47 H47        -1.2557   -0.1618   48.2061 H       1  ZINC000463741321    0.1200
     48 H48        -0.9912   -1.9623   46.5493 H       1  ZINC000463741321    0.1200
     49 H49        -1.3855   -1.5096   44.1628 H       1  ZINC000463741321    0.1200
     50 H50        -2.0471    0.7433   43.4254 H       1  ZINC000463741321    0.1200
     51 H51        -2.3210    2.5494   45.0746 H       1  ZINC000463741321    0.1300
     52 H52        -2.6952    1.1481   49.2513 H       1  ZINC000463741321    0.0500
     53 H53        -3.9277    1.7656   48.1255 H       1  ZINC000463741321    0.0900
@<TRIPOS>BOND
     1     1     2    1
     2     1    29    1
     3     1    30    1
     4     1    31    1
     5     2     3    1
     6     2     4    1
     7     2    13    1
     8     4     5    1
     9     4    32    1
    10     4    33    1
    11     5     6    1
    12     5    34    1
    13     5    35    1
    14     6    11   ar
    15     6     7   ar
    16     7     8   ar
    17     7    36    1
    18     8     9   ar
    19     8    37    1
    20     9    10   ar
    21     9    38    1
    22    10    11   ar
    23    10    39    1
    24    11    12    1
    25    13    14    2
    26    13    15   am
    27    15    16    1
    28    15    40    1
    29    16    17    1
    30    16    28    1
    31    16    18    1
    32    18    19    1
    33    18    41    1
    34    18    42    1
    35    19    20    1
    36    19    43    1
    37    19    44    1
    38    20    21    1
    39    20    45    1
    40    20    46    1
    41    21    22    1
    42    21    28    1
    43    22    27   ar
    44    22    23   ar
    45    23    24   ar
    46    23    47    1
    47    24    25   ar
    48    24    48    1
    49    25    26   ar
    50    25    49    1
    51    26    27   ar
    52    26    50    1
    53    27    51    1
    54    28    52    1
    55    28    53    1
@<TRIPOS>SUBSTRUCTURE
     1 ZINC000463741321        1 TEMP              0 ****  ****    0 ROOT


##########                                Name:    ZINC000918875053
##########                DOCK_Rotatable_Bonds:                   6
##########                         Heavy_Atoms:                  26
##########                    Molecular_Weight:             359.357
##########                DOCK_Rotatable_Bonds:                   6
##########                       Formal_Charge:           0.0200003
##########                     HBond_Acceptors:                   8
##########                        HBond_Donors:                   0
##########                         Heavy_Atoms:                  26
##########                          Grid_Score:          -33.158295
##########                     Grid_vdw_energy:          -31.084341
##########                      Grid_es_energy:           -2.073955
##########           Internal_energy_repulsive:            7.969923

@<TRIPOS>MOLECULE
ZINC000918875053
 44 47 1 0 0
SMALL
USER_CHARGES


@<TRIPOS>ATOM
      1 C1         -5.9344    3.0719   51.0834 C.3     1  ZINC000918875053   -0.1700
      2 C2         -5.8836    1.7730   50.2763 C.3     1  ZINC000918875053    0.1900
      3 H3         -6.3230    1.9390   49.2927 H       1  ZINC000918875053    0.1400
      4 O4         -4.5026    1.3510   50.1246 O.3     1  ZINC000918875053   -0.3400
      5 C5         -3.7676    1.9915   49.2018 C.2     1  ZINC000918875053    0.4800
      6 O6         -4.2991    2.7512   48.4270 O.2     1  ZINC000918875053   -0.4900
      7 C7         -2.2797    1.7629   49.1320 C.3     1  ZINC000918875053   -0.0900
      8 H8         -2.0494    0.8913   48.5193 H       1  ZINC000918875053    0.1400
      9 C9         -1.5509    3.0197   48.6026 C.3     1  ZINC000918875053   -0.1400
     10 C10        -0.2655    3.0661   49.3988 C.2     1  ZINC000918875053    0.5300
     11 O11         0.7094    3.7259   49.1064 O.2     1  ZINC000918875053   -0.5000
     12 N12        -0.3610    2.2702   50.4778 N.am    1  ZINC000918875053   -0.5800
     13 C13         0.6622    2.0844   51.4157 C.ar    1  ZINC000918875053    0.1000
     14 C14         1.3305    0.8702   51.4845 C.ar    1  ZINC000918875053   -0.0800
     15 C15         2.3401    0.6897   52.4107 C.ar    1  ZINC000918875053   -0.1200
     16 C16         2.6853    1.7167   53.2693 C.ar    1  ZINC000918875053   -0.0800
     17 C17         2.0222    2.9289   53.2047 C.ar    1  ZINC000918875053   -0.1500
     18 C18         1.0150    3.1184   52.2766 C.ar    1  ZINC000918875053    0.1100
     19 F19         0.3675    4.3024   52.2131 F       1  ZINC000918875053   -0.1300
     20 C20        -1.6755    1.6197   50.5465 C.3     1  ZINC000918875053    0.1200
     21 C21        -6.6595    0.7020   50.9988 C.2     1  ZINC000918875053    0.1800
     22 N22        -7.5288    0.8838   51.9636 N.2     1  ZINC000918875053   -0.4600
     23 C23        -7.9624   -0.3450   52.2966 C.2     1  ZINC000918875053    0.2100
     24 C24        -8.9769   -0.6748   53.3611 C.3     1  ZINC000918875053   -0.0900
     25 C25        -9.9644    0.4235   53.7603 C.3     1  ZINC000918875053   -0.1600
     26 C26       -10.4428   -0.7719   52.9340 C.3     1  ZINC000918875053   -0.1500
     27 N27        -7.3462   -1.1956   51.5316 N.2     1  ZINC000918875053   -0.3700
     28 O28        -6.5975   -0.6140   50.7749 O.3     1  ZINC000918875053    0.1000
     29 H29        -5.3732    3.8465   50.5607 H       1  ZINC000918875053    0.0900
     30 H30        -6.9711    3.3885   51.1973 H       1  ZINC000918875053    0.0900
     31 H31        -5.4950    2.9059   52.0670 H       1  ZINC000918875053    0.0800
     32 H32        -1.3372    2.9169   47.5387 H       1  ZINC000918875053    0.1300
     33 H33        -2.1472    3.9131   48.7883 H       1  ZINC000918875053    0.1100
     34 H34         1.0615    0.0666   50.8150 H       1  ZINC000918875053    0.1400
     35 H35         2.8601   -0.2554   52.4640 H       1  ZINC000918875053    0.1400
     36 H36         3.4743    1.5721   53.9923 H       1  ZINC000918875053    0.1400
     37 H37         2.2943    3.7292   53.8768 H       1  ZINC000918875053    0.1400
     38 H38        -2.3074    2.1224   51.2787 H       1  ZINC000918875053    0.1000
     39 H39        -1.5622    0.5668   50.8046 H       1  ZINC000918875053    0.1000
     40 H40        -8.6344   -1.3526   54.1430 H       1  ZINC000918875053    0.1400
     41 H41       -10.2718    0.4686   54.8051 H       1  ZINC000918875053    0.1100
     42 H42        -9.8803    1.3846   53.2530 H       1  ZINC000918875053    0.1000
     43 H43       -10.6734   -0.5974   51.8830 H       1  ZINC000918875053    0.1000
     44 H44       -11.0649   -1.5134   53.4352 H       1  ZINC000918875053    0.1100
@<TRIPOS>BOND
     1     1     2    1
     2     1    29    1
     3     1    30    1
     4     1    31    1
     5     2     3    1
     6     2     4    1
     7     2    21    1
     8     4     5    1
     9     5     6    2
    10     5     7    1
    11     7     8    1
    12     7    20    1
    13     7     9    1
    14     9    10    1
    15     9    32    1
    16     9    33    1
    17    10    11    2
    18    10    12   am
    19    12    13    1
    20    12    20    1
    21    13    18   ar
    22    13    14   ar
    23    14    15   ar
    24    14    34    1
    25    15    16   ar
    26    15    35    1
    27    16    17   ar
    28    16    36    1
    29    17    18   ar
    30    17    37    1
    31    18    19    1
    32    20    38    1
    33    20    39    1
    34    21    28    1
    35    21    22    2
    36    22    23    1
    37    23    24    1
    38    23    27    2
    39    24    26    1
    40    24    25    1
    41    24    40    1
    42    25    26    1
    43    25    41    1
    44    25    42    1
    45    26    43    1
    46    26    44    1
    47    27    28    1
@<TRIPOS>SUBSTRUCTURE
     1 ZINC000918875053        1 TEMP              0 ****  ****    0 ROOT


##########                                Name:    ZINC000151850193
##########                DOCK_Rotatable_Bonds:                  11
##########                         Heavy_Atoms:                  23
##########                    Molecular_Weight:             328.452
##########                DOCK_Rotatable_Bonds:                  11
##########                       Formal_Charge:            0.039999
##########                     HBond_Acceptors:                   6
##########                        HBond_Donors:                   2
##########                         Heavy_Atoms:                  23
##########                          Grid_Score:          -33.157860
##########                     Grid_vdw_energy:          -31.638075
##########                      Grid_es_energy:           -1.519787
##########           Internal_energy_repulsive:           49.767422

@<TRIPOS>MOLECULE
ZINC000151850193
 55 55 1 0 0
SMALL
USER_CHARGES


@<TRIPOS>ATOM
      1 C1        -14.1652   -3.5396   56.2677 C.3     1  ZINC000151850193   -0.1500
      2 C2        -13.2022   -2.3733   56.4989 C.3     1  ZINC000151850193   -0.1000
      3 C3        -12.5647   -2.5051   57.8836 C.3     1  ZINC000151850193   -0.0800
      4 C4        -11.8701   -3.8523   58.0920 C.3     1  ZINC000151850193   -0.1000
      5 C5        -10.7660   -4.0240   57.0468 C.3     1  ZINC000151850193   -0.1500
      6 C6        -11.7010   -1.2966   58.2816 C.3     1  ZINC000151850193    0.1400
      7 H7        -11.3012   -0.7461   57.4299 H       1  ZINC000151850193    0.1000
      8 N8        -10.6816   -1.6092   59.2862 N.am    1  ZINC000151850193   -0.7000
      9 C9         -9.7321   -0.7015   59.5880 C.2     1  ZINC000151850193    0.5200
     10 O10        -9.7208    0.3735   59.0266 O.2     1  ZINC000151850193   -0.5300
     11 C11        -8.6846   -1.0224   60.6227 C.3     1  ZINC000151850193   -0.1500
     12 C12        -9.2059   -0.6444   62.0105 C.3     1  ZINC000151850193    0.1500
     13 N13        -8.1479   -0.8512   63.0026 N.am    1  ZINC000151850193   -0.7100
     14 C14        -8.2395   -0.2718   64.2161 C.2     1  ZINC000151850193    0.6500
     15 O15        -9.1987    0.4231   64.4867 O.2     1  ZINC000151850193   -0.5600
     16 O16        -7.2679   -0.4632   65.1284 O.3     1  ZINC000151850193   -0.3700
     17 C17        -7.4443    0.1719   66.4222 C.3     1  ZINC000151850193    0.1400
     18 C18        -7.5420    1.6875   66.2374 C.3     1  ZINC000151850193   -0.1800
     19 C19        -8.7281   -0.3461   67.0737 C.3     1  ZINC000151850193   -0.1400
     20 C20        -6.2489   -0.1566   67.3188 C.3     1  ZINC000151850193   -0.1800
     21 C21       -12.9792   -0.6767   58.8704 C.3     1  ZINC000151850193   -0.1700
     22 C22       -13.5054   -2.1123   59.0348 C.3     1  ZINC000151850193    0.0700
     23 H23       -14.5625   -2.2205   58.7912 H       1  ZINC000151850193    0.0800
     24 O24       -13.1608   -2.7085   60.2869 O.3     1  ZINC000151850193   -0.3700
     25 C25       -14.2765   -3.2396   61.0046 C.3     1  ZINC000151850193    0.0300
     26 H26       -13.6121   -4.4784   56.2954 H       1  ZINC000151850193    0.0600
     27 H27       -14.9258   -3.5428   57.0485 H       1  ZINC000151850193    0.0600
     28 H28       -14.6437   -3.4282   55.2947 H       1  ZINC000151850193    0.0600
     29 H29       -12.4228   -2.3891   55.7370 H       1  ZINC000151850193    0.0700
     30 H30       -13.7497   -1.4327   56.4391 H       1  ZINC000151850193    0.0700
     31 H31       -11.4338   -3.8856   59.0903 H       1  ZINC000151850193    0.0700
     32 H32       -12.5983   -4.6565   57.9867 H       1  ZINC000151850193    0.0700
     33 H33       -11.2103   -4.0638   56.0522 H       1  ZINC000151850193    0.0500
     34 H34       -10.0776   -3.1808   57.1037 H       1  ZINC000151850193    0.0500
     35 H35       -10.2237   -4.9496   57.2398 H       1  ZINC000151850193    0.0500
     36 H36       -10.6901   -2.4695   59.7343 H       1  ZINC000151850193    0.4100
     37 H37        -8.4627   -2.0893   60.5962 H       1  ZINC000151850193    0.1000
     38 H38        -7.7774   -0.4573   60.4089 H       1  ZINC000151850193    0.1000
     39 H39        -9.5064    0.4034   62.0128 H       1  ZINC000151850193    0.0800
     40 H40       -10.0639   -1.2690   62.2590 H       1  ZINC000151850193    0.0800
     41 H41        -7.3815   -1.4049   62.7861 H       1  ZINC000151850193    0.4100
     42 H42        -8.3937    1.9215   65.5986 H       1  ZINC000151850193    0.0600
     43 H43        -7.6744    2.1642   67.2085 H       1  ZINC000151850193    0.0700
     44 H44        -6.6274    2.0566   65.7731 H       1  ZINC000151850193    0.0900
     45 H45        -8.6586   -1.4260   67.2054 H       1  ZINC000151850193    0.0700
     46 H46        -8.8606    0.1305   68.0450 H       1  ZINC000151850193    0.0800
     47 H47        -9.5798   -0.1122   66.4350 H       1  ZINC000151850193    0.0700
     48 H48        -5.3344    0.2124   66.8545 H       1  ZINC000151850193    0.0900
     49 H49        -6.3813    0.3201   68.2900 H       1  ZINC000151850193    0.0700
     50 H50        -6.1793   -1.2364   67.4504 H       1  ZINC000151850193    0.0600
     51 H51       -12.8180   -0.1598   59.8164 H       1  ZINC000151850193    0.0800
     52 H52       -13.5468   -0.0830   58.1538 H       1  ZINC000151850193    0.1000
     53 H53       -14.9876   -2.4404   61.2138 H       1  ZINC000151850193    0.0400
     54 H54       -14.7615   -4.0095   60.4044 H       1  ZINC000151850193    0.0400
     55 H55       -13.9317   -3.6739   61.9429 H       1  ZINC000151850193    0.0900
@<TRIPOS>BOND
     1     1     2    1
     2     1    26    1
     3     1    27    1
     4     1    28    1
     5     2     3    1
     6     2    29    1
     7     2    30    1
     8     3    22    1
     9     3     4    1
    10     3     6    1
    11     4     5    1
    12     4    31    1
    13     4    32    1
    14     5    33    1
    15     5    34    1
    16     5    35    1
    17     6     7    1
    18     6     8    1
    19     6    21    1
    20     8     9   am
    21     8    36    1
    22     9    10    2
    23     9    11    1
    24    11    12    1
    25    11    37    1
    26    11    38    1
    27    12    13    1
    28    12    39    1
    29    12    40    1
    30    13    14   am
    31    13    41    1
    32    14    15    2
    33    14    16    1
    34    16    17    1
    35    17    18    1
    36    17    19    1
    37    17    20    1
    38    18    42    1
    39    18    43    1
    40    18    44    1
    41    19    45    1
    42    19    46    1
    43    19    47    1
    44    20    48    1
    45    20    49    1
    46    20    50    1
    47    21    22    1
    48    21    51    1
    49    21    52    1
    50    22    23    1
    51    22    24    1
    52    24    25    1
    53    25    53    1
    54    25    54    1
    55    25    55    1
@<TRIPOS>SUBSTRUCTURE
     1 ZINC000151850193        1 TEMP              0 ****  ****    0 ROOT


##########                                Name:    ZINC001119787528
##########                DOCK_Rotatable_Bonds:                   6
##########                         Heavy_Atoms:                  27
##########                    Molecular_Weight:             362.434
##########                DOCK_Rotatable_Bonds:                   6
##########                       Formal_Charge:          -0.0199998
##########                     HBond_Acceptors:                   7
##########                        HBond_Donors:                   1
##########                         Heavy_Atoms:                  27
##########                          Grid_Score:          -33.143024
##########                     Grid_vdw_energy:          -33.223873
##########                      Grid_es_energy:            0.080848
##########           Internal_energy_repulsive:           13.099023

@<TRIPOS>MOLECULE
ZINC001119787528
 49 52 1 0 0
SMALL
USER_CHARGES


@<TRIPOS>ATOM
      1 C1        -14.7769   -1.6742   61.0109 C.3     1  ZINC001119787528   -0.1700
      2 C2        -14.4140   -3.1605   61.0024 C.3     1  ZINC001119787528    0.1000
      3 N3        -13.8751   -3.5241   59.6895 N.pl3   1  ZINC001119787528   -0.4500
      4 C4        -14.4860   -4.2847   58.7521 C.2     1  ZINC001119787528    0.1800
      5 N5        -13.6956   -4.3904   57.7156 N.2     1  ZINC001119787528   -0.4800
      6 C6        -12.5713   -3.7114   57.9529 C.2     1  ZINC001119787528   -0.0200
      7 C7        -12.6670   -3.1555   59.1798 C.2     1  ZINC001119787528   -0.0100
      8 C8        -11.6073   -2.2988   59.8214 C.3     1  ZINC001119787528   -0.0600
      9 C9        -10.2776   -2.5270   59.0910 C.3     1  ZINC001119787528    0.1400
     10 N10       -10.5157   -2.5059   57.6401 N.am    1  ZINC001119787528   -0.6200
     11 C11        -9.9683   -1.5491   56.8647 C.2     1  ZINC001119787528    0.7200
     12 O12        -9.2677   -0.6897   57.3633 O.2     1  ZINC001119787528   -0.5600
     13 N13       -10.1973   -1.5451   55.5365 N.am    1  ZINC001119787528   -0.6600
     14 C14        -9.6326   -0.5583   54.7368 C.ar    1  ZINC001119787528    0.4200
     15 C15       -10.0605    0.7658   54.8369 C.ar    1  ZINC001119787528   -0.2500
     16 C16        -9.4677    1.7103   54.0205 C.ar    1  ZINC001119787528    0.1600
     17 N17        -8.5200    1.3309   53.1759 N.ar    1  ZINC001119787528   -0.5300
     18 C18        -8.1381    0.0714   53.1054 C.ar    1  ZINC001119787528    0.3500
     19 C19        -7.0559   -0.3125   52.1296 C.3     1  ZINC001119787528   -0.0100
     20 C20        -6.0119    0.7734   52.0846 C.ar    1  ZINC001119787528   -0.0800
     21 C21        -5.6274    1.4110   53.2493 C.ar    1  ZINC001119787528   -0.1000
     22 C22        -4.6698    2.4071   53.2081 C.ar    1  ZINC001119787528   -0.1200
     23 C23        -4.0965    2.7654   52.0024 C.ar    1  ZINC001119787528   -0.1200
     24 C24        -4.4804    2.1271   50.8378 C.ar    1  ZINC001119787528   -0.1200
     25 C25        -5.4349    1.1280   50.8796 C.ar    1  ZINC001119787528   -0.1000
     26 N26        -8.6726   -0.8602   53.8683 N.ar    1  ZINC001119787528   -0.5500
     27 C27       -11.3694   -3.5527   57.0520 C.3     1  ZINC001119787528    0.2000
     28 H28       -15.1779   -1.4036   61.9877 H       1  ZINC001119787528    0.0800
     29 H29       -13.8852   -1.0813   60.8072 H       1  ZINC001119787528    0.0600
     30 H30       -15.5262   -1.4787   60.2437 H       1  ZINC001119787528    0.0600
     31 H31       -13.6648   -3.3560   61.7696 H       1  ZINC001119787528    0.0900
     32 H32       -15.3058   -3.7533   61.2061 H       1  ZINC001119787528    0.1000
     33 H33       -15.4649   -4.7315   58.8446 H       1  ZINC001119787528    0.2100
     34 H34       -11.8905   -1.2490   59.7451 H       1  ZINC001119787528    0.0800
     35 H35       -11.5000   -2.5749   60.8704 H       1  ZINC001119787528    0.0900
     36 H36        -9.5756   -1.7367   59.3566 H       1  ZINC001119787528    0.1100
     37 H37        -9.8652   -3.4941   59.3785 H       1  ZINC001119787528    0.0800
     38 H38       -10.7563   -2.2308   55.1387 H       1  ZINC001119787528    0.4200
     39 H39       -10.8358    1.0456   55.5348 H       1  ZINC001119787528    0.1800
     40 H40        -9.7736    2.7449   54.0701 H       1  ZINC001119787528    0.1700
     41 H41        -6.5943   -1.2472   52.4481 H       1  ZINC001119787528    0.1000
     42 H42        -7.4896   -0.4409   51.1379 H       1  ZINC001119787528    0.1000
     43 H43        -6.0754    1.1312   54.1913 H       1  ZINC001119787528    0.1300
     44 H44        -4.3699    2.9059   54.1179 H       1  ZINC001119787528    0.1200
     45 H45        -3.3489    3.5441   51.9701 H       1  ZINC001119787528    0.1200
     46 H46        -4.0328    2.4072   49.8957 H       1  ZINC001119787528    0.1200
     47 H47        -5.7348    0.6294   49.9698 H       1  ZINC001119787528    0.1200
     48 H48       -10.8218   -4.4939   57.0036 H       1  ZINC001119787528    0.0900
     49 H49       -11.6861   -3.2550   56.0526 H       1  ZINC001119787528    0.0900
@<TRIPOS>BOND
     1     1     2    1
     2     1    28    1
     3     1    29    1
     4     1    30    1
     5     2     3    1
     6     2    31    1
     7     2    32    1
     8     3     7    1
     9     3     4    1
    10     4     5    2
    11     4    33    1
    12     5     6    1
    13     6    27    1
    14     6     7    2
    15     7     8    1
    16     8     9    1
    17     8    34    1
    18     8    35    1
    19     9    10    1
    20     9    36    1
    21     9    37    1
    22    10    11   am
    23    10    27    1
    24    11    12    2
    25    11    13   am
    26    13    14    1
    27    13    38    1
    28    14    26   ar
    29    14    15   ar
    30    15    16   ar
    31    15    39    1
    32    16    17   ar
    33    16    40    1
    34    17    18   ar
    35    18    19    1
    36    18    26   ar
    37    19    20    1
    38    19    41    1
    39    19    42    1
    40    20    25   ar
    41    20    21   ar
    42    21    22   ar
    43    21    43    1
    44    22    23   ar
    45    22    44    1
    46    23    24   ar
    47    23    45    1
    48    24    25   ar
    49    24    46    1
    50    25    47    1
    51    27    48    1
    52    27    49    1
@<TRIPOS>SUBSTRUCTURE
     1 ZINC001119787528        1 TEMP              0 ****  ****    0 ROOT


##########                                Name:    ZINC000512239524
##########                DOCK_Rotatable_Bonds:                   9
##########                         Heavy_Atoms:                  31
##########                    Molecular_Weight:             424.518
##########                DOCK_Rotatable_Bonds:                   9
##########                       Formal_Charge:          0.00999919
##########                     HBond_Acceptors:                   7
##########                        HBond_Donors:                   1
##########                         Heavy_Atoms:                  31
##########                          Grid_Score:          -33.133247
##########                     Grid_vdw_energy:          -32.337807
##########                      Grid_es_energy:           -0.795439
##########           Internal_energy_repulsive:           31.942112

@<TRIPOS>MOLECULE
ZINC000512239524
 60 63 1 0 0
SMALL
USER_CHARGES


@<TRIPOS>ATOM
      1 C1         -4.3234    2.4917   48.7461 C.3     1  ZINC000512239524   -0.1600
      2 C2         -4.1473    2.5937   50.2625 C.3     1  ZINC000512239524    0.2000
      3 H3         -4.4124    3.5981   50.5923 H       1  ZINC000512239524    0.1100
      4 N4         -5.0180    1.6174   50.9220 N.am    1  ZINC000512239524   -0.7400
      5 C5         -5.4379    1.8334   52.1843 C.2     1  ZINC000512239524    0.7100
      6 O6         -5.0941    2.8386   52.7758 O.2     1  ZINC000512239524   -0.5800
      7 N7         -6.2390    0.9352   52.7910 N.am    1  ZINC000512239524   -0.6300
      8 C8         -6.7097    1.1596   54.1645 C.3     1  ZINC000512239524    0.1300
      9 C9         -8.2376    1.0487   54.1864 C.3     1  ZINC000512239524   -0.1100
     10 C10        -8.6558   -0.2975   53.5906 C.3     1  ZINC000512239524   -0.1000
     11 C11       -10.1566   -0.4244   53.6416 C.2     1  ZINC000512239524    0.5300
     12 O12       -10.8374    0.0737   52.7701 O.2     1  ZINC000512239524   -0.5300
     13 N13       -10.7424   -1.0914   54.6558 N.am    1  ZINC000512239524   -0.5800
     14 C14        -9.9203   -1.6916   55.7094 C.3     1  ZINC000512239524    0.1500
     15 C15       -10.8106   -2.1912   56.8180 C.ar    1  ZINC000512239524   -0.1100
     16 C16       -10.9937   -1.4266   57.9550 C.ar    1  ZINC000512239524   -0.0900
     17 C17       -11.8104   -1.8849   58.9718 C.ar    1  ZINC000512239524   -0.1200
     18 C18       -12.4442   -3.1075   58.8514 C.ar    1  ZINC000512239524   -0.1100
     19 C19       -12.2617   -3.8716   57.7141 C.ar    1  ZINC000512239524   -0.1200
     20 C20       -11.4485   -3.4114   56.6953 C.ar    1  ZINC000512239524   -0.1100
     21 C21       -12.2012   -1.2162   54.7044 C.3     1  ZINC000512239524    0.0700
     22 C22       -12.9421   -0.4273   55.7859 C.3     1  ZINC000512239524   -0.1900
     23 C23       -13.0286    0.0129   54.3232 C.3     1  ZINC000512239524   -0.2000
     24 C24        -8.1862   -0.3817   52.1365 C.3     1  ZINC000512239524   -0.1400
     25 C25        -6.6628   -0.2841   52.0892 C.3     1  ZINC000512239524    0.1100
     26 C26        -2.7115    2.3097   50.6216 C.ar    1  ZINC000512239524   -0.0800
     27 C27        -2.1911    1.0304   50.5066 C.ar    1  ZINC000512239524   -0.1400
     28 C28        -0.8694    0.8074   50.8447 C.ar    1  ZINC000512239524    0.1000
     29 N29        -0.1059    1.7935   51.2726 N.ar    1  ZINC000512239524   -0.4600
     30 C30        -0.5651    3.0236   51.3953 C.ar    1  ZINC000512239524    0.0800
     31 C31        -1.8764    3.3247   51.0703 C.ar    1  ZINC000512239524    0.0600
     32 F32        -2.3409    4.5869   51.1981 F       1  ZINC000512239524   -0.1200
     33 H33        -5.3619    2.6971   48.4863 H       1  ZINC000512239524    0.0700
     34 H34        -3.6756    3.2182   48.2554 H       1  ZINC000512239524    0.0700
     35 H35        -4.0583    1.4872   48.4163 H       1  ZINC000512239524    0.0600
     36 H36        -5.2922    0.8155   50.4501 H       1  ZINC000512239524    0.3900
     37 H37        -6.2793    0.4076   54.8258 H       1  ZINC000512239524    0.0700
     38 H38        -6.4108    2.1542   54.4954 H       1  ZINC000512239524    0.1000
     39 H39        -8.5926    1.1176   55.2147 H       1  ZINC000512239524    0.0900
     40 H40        -8.6694    1.8575   53.5969 H       1  ZINC000512239524    0.0800
     41 H41        -8.2033   -1.1054   54.1656 H       1  ZINC000512239524    0.1000
     42 H42        -9.3520   -2.5250   55.2964 H       1  ZINC000512239524    0.0900
     43 H43        -9.2331   -0.9434   56.1045 H       1  ZINC000512239524    0.1000
     44 H44       -10.4986   -0.4715   58.0491 H       1  ZINC000512239524    0.1300
     45 H45       -11.9530   -1.2880   59.8604 H       1  ZINC000512239524    0.1200
     46 H46       -13.0817   -3.4658   59.6462 H       1  ZINC000512239524    0.1200
     47 H47       -12.7566   -4.8269   57.6201 H       1  ZINC000512239524    0.1200
     48 H48       -11.3059   -4.0084   55.8067 H       1  ZINC000512239524    0.1200
     49 H49       -12.5987   -2.1943   54.4332 H       1  ZINC000512239524    0.1300
     50 H50       -13.8271   -0.8864   56.2264 H       1  ZINC000512239524    0.1100
     51 H51       -12.3441    0.1846   56.4611 H       1  ZINC000512239524    0.1000
     52 H52       -12.4875    0.9146   54.0362 H       1  ZINC000512239524    0.1100
     53 H53       -13.9705   -0.1564   53.8014 H       1  ZINC000512239524    0.1000
     54 H54        -8.5048   -1.3309   51.7056 H       1  ZINC000512239524    0.0900
     55 H55        -8.6186    0.4406   51.5663 H       1  ZINC000512239524    0.0700
     56 H56        -6.3313   -0.2440   51.0517 H       1  ZINC000512239524    0.0800
     57 H57        -6.2255   -1.1527   52.5815 H       1  ZINC000512239524    0.0800
     58 H58        -2.8105    0.2175   50.1574 H       1  ZINC000512239524    0.1400
     59 H59        -0.4570   -0.1870   50.7575 H       1  ZINC000512239524    0.1700
     60 H60         0.0903    3.8054   51.7496 H       1  ZINC000512239524    0.1700
@<TRIPOS>BOND
     1     1     2    1
     2     1    33    1
     3     1    34    1
     4     1    35    1
     5     2     3    1
     6     2     4    1
     7     2    26    1
     8     4     5   am
     9     4    36    1
    10     5     6    2
    11     5     7   am
    12     7    25    1
    13     7     8    1
    14     8     9    1
    15     8    37    1
    16     8    38    1
    17     9    10    1
    18     9    39    1
    19     9    40    1
    20    10    11    1
    21    10    24    1
    22    10    41    1
    23    11    12    2
    24    11    13   am
    25    13    14    1
    26    13    21    1
    27    14    15    1
    28    14    42    1
    29    14    43    1
    30    15    20   ar
    31    15    16   ar
    32    16    17   ar
    33    16    44    1
    34    17    18   ar
    35    17    45    1
    36    18    19   ar
    37    18    46    1
    38    19    20   ar
    39    19    47    1
    40    20    48    1
    41    21    23    1
    42    21    22    1
    43    21    49    1
    44    22    23    1
    45    22    50    1
    46    22    51    1
    47    23    52    1
    48    23    53    1
    49    24    25    1
    50    24    54    1
    51    24    55    1
    52    25    56    1
    53    25    57    1
    54    26    31   ar
    55    26    27   ar
    56    27    28   ar
    57    27    58    1
    58    28    29   ar
    59    28    59    1
    60    29    30   ar
    61    30    31   ar
    62    30    60    1
    63    31    32    1
@<TRIPOS>SUBSTRUCTURE
     1 ZINC000512239524        1 TEMP              0 ****  ****    0 ROOT


##########                                Name:    ZINC000533037883
##########                DOCK_Rotatable_Bonds:                   7
##########                         Heavy_Atoms:                  27
##########                    Molecular_Weight:             368.479
##########                DOCK_Rotatable_Bonds:                   7
##########                       Formal_Charge:          0.00999947
##########                     HBond_Acceptors:                   6
##########                        HBond_Donors:                   1
##########                         Heavy_Atoms:                  27
##########                          Grid_Score:          -33.129211
##########                     Grid_vdw_energy:          -33.309376
##########                      Grid_es_energy:            0.180166
##########           Internal_energy_repulsive:           13.640216

@<TRIPOS>MOLECULE
ZINC000533037883
 55 58 1 0 0
SMALL
USER_CHARGES


@<TRIPOS>ATOM
      1 O1         -6.4334   -0.4301   50.9688 O.2     1  ZINC000533037883   -0.5900
      2 C2         -7.0345    0.6134   51.1369 C.2     1  ZINC000533037883    0.7100
      3 N3         -8.1637    0.6296   51.8724 N.am    1  ZINC000533037883   -0.7500
      4 C4         -8.6703   -0.6111   52.4643 C.3     1  ZINC000533037883    0.1400
      5 C5         -9.8132   -0.2867   53.4283 C.3     1  ZINC000533037883   -0.0500
      6 C6         -9.2624   -0.1137   54.8203 C.2     1  ZINC000533037883   -0.2300
      7 C7         -9.7629   -0.6673   55.9490 C.2     1  ZINC000533037883    0.0600
      8 N8         -8.9857   -0.2700   56.9818 N.pl3   1  ZINC000533037883   -0.3200
      9 C9         -9.1593   -0.6212   58.3278 C.ar    1  ZINC000533037883    0.1600
     10 C10       -10.2198   -1.4350   58.7032 C.ar    1  ZINC000533037883   -0.1400
     11 C11       -10.3881   -1.7794   60.0301 C.ar    1  ZINC000533037883   -0.0900
     12 C12        -9.5022   -1.3141   60.9844 C.ar    1  ZINC000533037883   -0.1300
     13 C13        -8.4451   -0.5035   60.6136 C.ar    1  ZINC000533037883   -0.0900
     14 C14        -8.2679   -0.1608   59.2874 C.ar    1  ZINC000533037883   -0.1200
     15 N15        -7.9760    0.5542   56.4684 N.2     1  ZINC000533037883   -0.2900
     16 C16        -8.1395    0.6430   55.1729 C.2     1  ZINC000533037883    0.0700
     17 N17        -6.5684    1.7547   50.5924 N.am    1  ZINC000533037883   -0.6300
     18 C18        -7.2803    3.0244   50.7918 C.3     1  ZINC000533037883    0.1100
     19 C19        -6.2968    4.0591   51.3477 C.3     1  ZINC000533037883   -0.1400
     20 C20        -5.0856    4.1570   50.4173 C.3     1  ZINC000533037883   -0.1100
     21 C21        -4.3771    2.8019   50.3552 C.3     1  ZINC000533037883   -0.0900
     22 H22        -4.0673    2.5070   51.3577 H       1  ZINC000533037883    0.0800
     23 C23        -3.1472    2.9096   49.4515 C.3     1  ZINC000533037883   -0.1200
     24 H24        -3.4342    3.2059   48.4426 H       1  ZINC000533037883    0.0900
     25 C25        -2.1104    3.9017   50.0452 C.3     1  ZINC000533037883   -0.1500
     26 C26        -0.7921    3.3328   49.4627 C.3     1  ZINC000533037883    0.0500
     27 O27        -0.9642    1.9068   49.4681 O.3     1  ZINC000533037883   -0.3900
     28 C28        -2.3621    1.5805   49.4314 C.3     1  ZINC000533037883    0.0500
     29 C29        -5.3356    1.7541   49.7931 C.3     1  ZINC000533037883    0.1300
     30 H30        -8.6412    1.4627   52.0098 H       1  ZINC000533037883    0.4000
     31 H31        -9.0361   -1.2674   51.6747 H       1  ZINC000533037883    0.0700
     32 H32        -7.8670   -1.1089   53.0075 H       1  ZINC000533037883    0.0700
     33 H33       -10.3030    0.6350   53.1142 H       1  ZINC000533037883    0.0800
     34 H34       -10.5361   -1.1024   53.4224 H       1  ZINC000533037883    0.0800
     35 H35       -10.6281   -1.3105   56.0135 H       1  ZINC000533037883    0.1800
     36 H36       -10.9124   -1.7982   57.9584 H       1  ZINC000533037883    0.1300
     37 H37       -11.2129   -2.4124   60.3226 H       1  ZINC000533037883    0.1300
     38 H38        -9.6364   -1.5842   62.0214 H       1  ZINC000533037883    0.1300
     39 H39        -7.7548   -0.1416   61.3612 H       1  ZINC000533037883    0.1300
     40 H40        -7.4419    0.4722   58.9984 H       1  ZINC000533037883    0.1400
     41 H41        -7.5182    1.2080   54.4939 H       1  ZINC000533037883    0.1900
     42 H42        -7.6784    3.3737   49.8391 H       1  ZINC000533037883    0.0700
     43 H43        -8.0963    2.8786   51.4997 H       1  ZINC000533037883    0.0800
     44 H44        -6.7872    5.0305   51.4098 H       1  ZINC000533037883    0.0800
     45 H45        -5.9688    3.7524   52.3409 H       1  ZINC000533037883    0.0700
     46 H46        -5.4170    4.4396   49.4182 H       1  ZINC000533037883    0.0700
     47 H47        -4.3957    4.9103   50.7975 H       1  ZINC000533037883    0.0700
     48 H48        -2.2905    4.9167   49.6912 H       1  ZINC000533037883    0.0800
     49 H49        -2.1079    3.8622   51.1345 H       1  ZINC000533037883    0.0800
     50 H50        -0.6422    3.6920   48.4446 H       1  ZINC000533037883    0.0600
     51 H51         0.0522    3.6143   50.0922 H       1  ZINC000533037883    0.0900
     52 H52        -2.6259    0.9850   50.3055 H       1  ZINC000533037883    0.0700
     53 H53        -2.5882    1.0243   48.5217 H       1  ZINC000533037883    0.0700
     54 H54        -4.8691    0.7699   49.8394 H       1  ZINC000533037883    0.1000
     55 H55        -5.5776    1.9976   48.7586 H       1  ZINC000533037883    0.0700
@<TRIPOS>BOND
     1     1     2    2
     2     2     3   am
     3     2    17   am
     4     3     4    1
     5     3    30    1
     6     4     5    1
     7     4    31    1
     8     4    32    1
     9     5     6    1
    10     5    33    1
    11     5    34    1
    12     6    16    1
    13     6     7    2
    14     7     8    1
    15     7    35    1
    16     8     9    1
    17     8    15    1
    18     9    14   ar
    19     9    10   ar
    20    10    11   ar
    21    10    36    1
    22    11    12   ar
    23    11    37    1
    24    12    13   ar
    25    12    38    1
    26    13    14   ar
    27    13    39    1
    28    14    40    1
    29    15    16    2
    30    16    41    1
    31    17    29    1
    32    17    18    1
    33    18    19    1
    34    18    42    1
    35    18    43    1
    36    19    20    1
    37    19    44    1
    38    19    45    1
    39    20    21    1
    40    20    46    1
    41    20    47    1
    42    21    22    1
    43    21    23    1
    44    21    29    1
    45    23    24    1
    46    23    28    1
    47    23    25    1
    48    25    26    1
    49    25    48    1
    50    25    49    1
    51    26    27    1
    52    26    50    1
    53    26    51    1
    54    27    28    1
    55    28    52    1
    56    28    53    1
    57    29    54    1
    58    29    55    1
@<TRIPOS>SUBSTRUCTURE
     1 ZINC000533037883        1 TEMP              0 ****  ****    0 ROOT


##########                                Name:    ZINC000020646552
##########                DOCK_Rotatable_Bonds:                   5
##########                         Heavy_Atoms:                  29
##########                    Molecular_Weight:             412.556
##########                DOCK_Rotatable_Bonds:                   5
##########                       Formal_Charge:          -0.0200012
##########                     HBond_Acceptors:                   7
##########                        HBond_Donors:                   0
##########                         Heavy_Atoms:                  29
##########                          Grid_Score:          -33.123810
##########                     Grid_vdw_energy:          -31.949974
##########                      Grid_es_energy:           -1.173838
##########           Internal_energy_repulsive:           14.852765

@<TRIPOS>MOLECULE
ZINC000020646552
 57 60 1 0 0
SMALL
USER_CHARGES


@<TRIPOS>ATOM
      1 C1         -8.8345    0.6531   65.0536 C.3     1  ZINC000020646552    0.0200
      2 N2         -9.1551    0.4807   63.6304 N.3     1  ZINC000020646552   -0.5400
      3 C3         -8.2611   -0.5029   63.0048 C.3     1  ZINC000020646552    0.0400
      4 C4         -8.7397   -0.7878   61.5772 C.3     1  ZINC000020646552    0.1200
      5 N5         -8.8569    0.4908   60.8598 N.am    1  ZINC000020646552   -0.6100
      6 C6         -8.2757    0.6646   59.6562 C.2     1  ZINC000020646552    0.5300
      7 O7         -7.6473   -0.2407   59.1499 O.2     1  ZINC000020646552   -0.5200
      8 C8         -8.4071    1.9837   58.9395 C.3     1  ZINC000020646552   -0.1500
      9 S9        -10.0176    2.0659   58.1175 S.3     1  ZINC000020646552    0.0500
     10 C10        -9.8199    0.7813   56.9279 C.ar    1  ZINC000020646552    0.1500
     11 N11        -8.9816    0.9299   55.9078 N.ar    1  ZINC000020646552   -0.5200
     12 C12        -8.8326   -0.0363   55.0124 C.ar    1  ZINC000020646552    0.3800
     13 C13        -7.8865    0.1602   53.8871 C.ar    1  ZINC000020646552   -0.0500
     14 C14        -8.1638   -0.3882   52.6362 C.ar    1  ZINC000020646552   -0.0700
     15 C15        -7.2801   -0.2017   51.5926 C.ar    1  ZINC000020646552   -0.1300
     16 C16        -6.1210    0.5279   51.7865 C.ar    1  ZINC000020646552   -0.1000
     17 C17        -5.8404    1.0741   53.0260 C.ar    1  ZINC000020646552   -0.1300
     18 C18        -6.7197    0.8989   54.0752 C.ar    1  ZINC000020646552   -0.0700
     19 N19        -9.5076   -1.1734   55.0977 N.ar    1  ZINC000020646552   -0.5200
     20 C20       -10.3620   -1.3875   56.0904 C.ar    1  ZINC000020646552    0.2100
     21 C21       -10.5394   -0.4135   57.0462 C.ar    1  ZINC000020646552   -0.2100
     22 C22       -11.4832   -0.6001   58.2019 C.3     1  ZINC000020646552    0.1100
     23 O23       -12.3718   -1.6873   57.9414 O.3     1  ZINC000020646552   -0.3600
     24 C24       -11.6959   -2.8876   57.5505 C.3     1  ZINC000020646552    0.1100
     25 C25       -10.5618   -3.1822   58.5344 C.3     1  ZINC000020646552   -0.1800
     26 C26       -12.6851   -4.0548   57.5423 C.3     1  ZINC000020646552   -0.1400
     27 C27       -11.1151   -2.6902   56.1502 C.3     1  ZINC000020646552   -0.0900
     28 C28        -9.6254    1.5748   61.4906 C.3     1  ZINC000020646552    0.1100
     29 C29        -9.1120    1.7666   62.9216 C.3     1  ZINC000020646552    0.0400
     30 H30        -9.5584    1.3282   65.5100 H       1  ZINC000020646552    0.0700
     31 H31        -8.8737   -0.3142   65.5546 H       1  ZINC000020646552    0.0700
     32 H32        -7.8336    1.0732   65.1523 H       1  ZINC000020646552    0.0300
     33 H33        -7.2465   -0.1055   62.9758 H       1  ZINC000020646552    0.0400
     34 H34        -8.2741   -1.4263   63.5839 H       1  ZINC000020646552    0.0900
     35 H35        -8.0177   -1.4275   61.0698 H       1  ZINC000020646552    0.1000
     36 H36        -9.7114   -1.2806   61.6082 H       1  ZINC000020646552    0.0800
     37 H37        -8.3244    2.7981   59.6591 H       1  ZINC000020646552    0.1300
     38 H38        -7.6149    2.0738   58.1962 H       1  ZINC000020646552    0.1200
     39 H39        -9.0683   -0.9583   52.4838 H       1  ZINC000020646552    0.1400
     40 H40        -7.4938   -0.6266   50.6229 H       1  ZINC000020646552    0.1300
     41 H41        -5.4323    0.6713   50.9671 H       1  ZINC000020646552    0.1300
     42 H42        -4.9337    1.6425   53.1718 H       1  ZINC000020646552    0.1300
     43 H43        -6.4996    1.3258   55.0426 H       1  ZINC000020646552    0.1300
     44 H44       -10.9107   -0.8100   59.1055 H       1  ZINC000020646552    0.0800
     45 H45       -12.0614    0.3124   58.3471 H       1  ZINC000020646552    0.1100
     46 H46       -10.9733   -3.3082   59.5359 H       1  ZINC000020646552    0.0700
     47 H47       -10.0490   -4.0962   58.2347 H       1  ZINC000020646552    0.0700
     48 H48        -9.8553   -2.3522   58.5337 H       1  ZINC000020646552    0.0600
     49 H49       -13.4884   -3.8453   56.8360 H       1  ZINC000020646552    0.0700
     50 H50       -12.1681   -4.9670   57.2444 H       1  ZINC000020646552    0.0800
     51 H51       -13.1033   -4.1836   58.5406 H       1  ZINC000020646552    0.0700
     52 H52       -11.9253   -2.6678   55.4214 H       1  ZINC000020646552    0.1000
     53 H53       -10.4413   -3.5148   55.9175 H       1  ZINC000020646552    0.1000
     54 H54        -9.4888    2.4970   60.9258 H       1  ZINC000020646552    0.0900
     55 H55       -10.6823    1.3091   61.5133 H       1  ZINC000020646552    0.0800
     56 H56        -9.7420    2.4892   63.4402 H       1  ZINC000020646552    0.0900
     57 H57        -8.0855    2.1324   62.8937 H       1  ZINC000020646552    0.0400
@<TRIPOS>BOND
     1     1     2    1
     2     1    30    1
     3     1    31    1
     4     1    32    1
     5     2    29    1
     6     2     3    1
     7     3     4    1
     8     3    33    1
     9     3    34    1
    10     4     5    1
    11     4    35    1
    12     4    36    1
    13     5     6   am
    14     5    28    1
    15     6     7    2
    16     6     8    1
    17     8     9    1
    18     8    37    1
    19     8    38    1
    20     9    10    1
    21    10    21   ar
    22    10    11   ar
    23    11    12   ar
    24    12    13    1
    25    12    19   ar
    26    13    18   ar
    27    13    14   ar
    28    14    15   ar
    29    14    39    1
    30    15    16   ar
    31    15    40    1
    32    16    17   ar
    33    16    41    1
    34    17    18   ar
    35    17    42    1
    36    18    43    1
    37    19    20   ar
    38    20    27    1
    39    20    21   ar
    40    21    22    1
    41    22    23    1
    42    22    44    1
    43    22    45    1
    44    23    24    1
    45    24    25    1
    46    24    26    1
    47    24    27    1
    48    25    46    1
    49    25    47    1
    50    25    48    1
    51    26    49    1
    52    26    50    1
    53    26    51    1
    54    27    52    1
    55    27    53    1
    56    28    29    1
    57    28    54    1
    58    28    55    1
    59    29    56    1
    60    29    57    1
@<TRIPOS>SUBSTRUCTURE
     1 ZINC000020646552        1 TEMP              0 ****  ****    0 ROOT


##########                                Name:    ZINC001369071670
##########                DOCK_Rotatable_Bonds:                   8
##########                         Heavy_Atoms:                  24
##########                    Molecular_Weight:             335.366
##########                DOCK_Rotatable_Bonds:                   8
##########                       Formal_Charge:        -2.90573e-07
##########                     HBond_Acceptors:                  10
##########                        HBond_Donors:                   1
##########                         Heavy_Atoms:                  24
##########                          Grid_Score:          -33.084877
##########                     Grid_vdw_energy:          -31.148306
##########                      Grid_es_energy:           -1.936571
##########           Internal_energy_repulsive:           13.272204

@<TRIPOS>MOLECULE
ZINC001369071670
 45 47 1 0 0
SMALL
USER_CHARGES


@<TRIPOS>ATOM
      1 C1         -8.9043    4.9564   62.9541 C.3     1  ZINC001369071670   -0.0800
      2 C2         -9.1430    3.7766   63.8609 C.2     1  ZINC001369071670    0.0000
      3 C3         -8.6960    2.5130   63.6783 C.2     1  ZINC001369071670   -0.2300
      4 C4         -9.1944    1.8074   64.8044 C.2     1  ZINC001369071670    0.2100
      5 O5         -9.0156    0.4919   65.0857 O.3     1  ZINC001369071670   -0.2600
      6 C6         -8.2469   -0.2721   64.1543 C.3     1  ZINC001369071670    0.0400
      7 C7         -8.9431   -0.2829   62.8179 C.2     1  ZINC001369071670    0.5200
      8 O8        -10.1332   -0.0580   62.7522 O.2     1  ZINC001369071670   -0.5100
      9 N9         -8.2434   -0.5424   61.6956 N.am    1  ZINC001369071670   -0.7200
     10 C10        -8.9199   -0.5511   60.3962 C.3     1  ZINC001369071670    0.1500
     11 H11        -9.8135    0.0710   60.4475 H       1  ZINC001369071670    0.0900
     12 C12        -7.9757   -0.0002   59.3258 C.3     1  ZINC001369071670   -0.1700
     13 C13        -9.3167   -1.9846   60.0373 C.3     1  ZINC001369071670   -0.1200
     14 C14       -10.5580   -2.4917   60.7933 C.3     1  ZINC001369071670    0.0100
     15 N15       -10.9792   -3.0834   59.5043 N.3     1  ZINC001369071670   -0.4800
     16 C16       -12.4146   -2.8742   59.2730 C.3     1  ZINC001369071670    0.1000
     17 C17       -12.9153   -3.8863   58.2749 C.2     1  ZINC001369071670    0.1900
     18 N18       -12.1953   -4.5445   57.3996 N.2     1  ZINC001369071670   -0.3000
     19 N19       -12.9851   -5.3125   56.7316 N.2     1  ZINC001369071670   -0.0700
     20 N20       -14.1903   -5.1613   57.1579 N.2     1  ZINC001369071670   -0.0900
     21 N21       -14.1878   -4.2940   58.1132 N.pl3   1  ZINC001369071670   -0.3000
     22 C22       -15.3525   -3.8325   58.8726 C.3     1  ZINC001369071670    0.0800
     23 C23       -10.1721   -2.0900   58.7620 C.3     1  ZINC001369071670    0.0200
     24 N24        -9.8591    2.6778   65.5161 N.2     1  ZINC001369071670   -0.4100
     25 O25        -9.8351    3.7754   65.0093 O.3     1  ZINC001369071670    0.1000
     26 H26        -9.3875    5.8395   63.3721 H       1  ZINC001369071670    0.0900
     27 H27        -7.8328    5.1360   62.8659 H       1  ZINC001369071670    0.1000
     28 H28        -9.3200    4.7471   61.9685 H       1  ZINC001369071670    0.1000
     29 H29        -8.0985    2.1299   62.8643 H       1  ZINC001369071670    0.1800
     30 H30        -7.2587    0.1751   64.0456 H       1  ZINC001369071670    0.1000
     31 H31        -8.1450   -1.2941   64.5192 H       1  ZINC001369071670    0.1000
     32 H32        -7.2919   -0.7233   61.7482 H       1  ZINC001369071670    0.4000
     33 H33        -7.6931    1.0210   59.5815 H       1  ZINC001369071670    0.0600
     34 H34        -7.0821   -0.6224   59.2745 H       1  ZINC001369071670    0.0600
     35 H35        -8.4790   -0.0068   58.3590 H       1  ZINC001369071670    0.0700
     36 H36        -8.4747   -2.6765   60.0593 H       1  ZINC001369071670    0.1100
     37 H37       -10.3325   -3.2301   61.5627 H       1  ZINC001369071670    0.1000
     38 H38       -11.2133   -1.6951   61.1458 H       1  ZINC001369071670    0.0800
     39 H39       -12.9549   -2.9922   60.2122 H       1  ZINC001369071670    0.1000
     40 H40       -12.5773   -1.8691   58.8839 H       1  ZINC001369071670    0.0900
     41 H41       -15.4944   -4.4716   59.7442 H       1  ZINC001369071670    0.1000
     42 H42       -15.1903   -2.8050   59.1980 H       1  ZINC001369071670    0.1000
     43 H43       -16.2395   -3.8778   58.2406 H       1  ZINC001369071670    0.1100
     44 H44       -10.7145   -1.1759   58.5203 H       1  ZINC001369071670    0.0800
     45 H45        -9.6382   -2.5074   57.9083 H       1  ZINC001369071670    0.1000
@<TRIPOS>BOND
     1     1     2    1
     2     1    26    1
     3     1    27    1
     4     1    28    1
     5     2    25    1
     6     2     3    2
     7     3     4    1
     8     3    29    1
     9     4     5    1
    10     4    24    2
    11     5     6    1
    12     6     7    1
    13     6    30    1
    14     6    31    1
    15     7     8    2
    16     7     9   am
    17     9    10    1
    18     9    32    1
    19    10    11    1
    20    10    12    1
    21    10    13    1
    22    12    33    1
    23    12    34    1
    24    12    35    1
    25    13    23    1
    26    13    14    1
    27    13    36    1
    28    14    15    1
    29    14    37    1
    30    14    38    1
    31    15    16    1
    32    15    23    1
    33    16    17    1
    34    16    39    1
    35    16    40    1
    36    17    21    1
    37    17    18    2
    38    18    19    1
    39    19    20    2
    40    20    21    1
    41    21    22    1
    42    22    41    1
    43    22    42    1
    44    22    43    1
    45    23    44    1
    46    23    45    1
    47    24    25    1
@<TRIPOS>SUBSTRUCTURE
     1 ZINC001369071670        1 TEMP              0 ****  ****    0 ROOT


##########                                Name:    ZINC000124554441
##########                DOCK_Rotatable_Bonds:                   9
##########                         Heavy_Atoms:                  26
##########                    Molecular_Weight:             375.898
##########                DOCK_Rotatable_Bonds:                   9
##########                       Formal_Charge:         -0.00999991
##########                     HBond_Acceptors:                   6
##########                        HBond_Donors:                   1
##########                         Heavy_Atoms:                  26
##########                          Grid_Score:          -33.076454
##########                     Grid_vdw_energy:          -32.416824
##########                      Grid_es_energy:           -0.659630
##########           Internal_energy_repulsive:           13.239856

@<TRIPOS>MOLECULE
ZINC000124554441
 52 53 1 0 0
SMALL
USER_CHARGES


@<TRIPOS>ATOM
      1 C1         -2.5671    2.7516   49.9983 C.3     1  ZINC000124554441   -0.1500
      2 C2         -3.8288    2.0036   49.5630 C.3     1  ZINC000124554441   -0.1300
      3 C3         -5.0627    2.8370   49.9146 C.3     1  ZINC000124554441   -0.1200
      4 C4         -6.3167    1.9693   49.7904 C.3     1  ZINC000124554441   -0.1200
      5 C5         -7.0104    1.8777   51.1510 C.3     1  ZINC000124554441   -0.1300
      6 C6         -6.4637    0.6746   51.9222 C.3     1  ZINC000124554441    0.1200
      7 N7         -7.1752    0.5471   53.1964 N.am    1  ZINC000124554441   -0.7300
      8 C8         -8.3827   -0.0502   53.2373 C.2     1  ZINC000124554441    0.5200
      9 O9         -8.8809   -0.4810   52.2189 O.2     1  ZINC000124554441   -0.5300
     10 C10        -9.1138   -0.1830   54.5484 C.3     1  ZINC000124554441   -0.1200
     11 H11        -8.3956   -0.3592   55.3491 H       1  ZINC000124554441    0.1000
     12 C12        -9.8904    1.1046   54.8328 C.3     1  ZINC000124554441   -0.1000
     13 C13       -10.6067    0.9834   56.1797 C.3     1  ZINC000124554441   -0.1400
     14 C14       -11.6029   -0.1791   56.1209 C.3     1  ZINC000124554441    0.0900
     15 N15       -10.8881   -1.3939   55.7061 N.am    1  ZINC000124554441   -0.6000
     16 C16       -10.9606   -2.5192   56.4441 C.2     1  ZINC000124554441    0.5600
     17 O17       -10.3646   -3.5176   56.0903 O.2     1  ZINC000124554441   -0.5200
     18 C18       -11.7656   -2.5392   57.6850 C.ar    1  ZINC000124554441   -0.0900
     19 C19       -11.2587   -1.9700   58.8549 C.ar    1  ZINC000124554441   -0.0900
     20 C20       -12.0072   -1.9880   60.0108 C.ar    1  ZINC000124554441   -0.0600
     21 C21       -13.2739   -2.5761   60.0137 C.ar    1  ZINC000124554441    0.0100
     22 C22       -14.0523   -2.5950   61.2155 C.1     1  ZINC000124554441    0.2400
     23 N23       -14.6698   -2.6098   62.1690 N.1     1  ZINC000124554441   -0.3800
     24 C24       -13.7819   -3.1463   58.8425 C.ar    1  ZINC000124554441    0.0000
     25 Cl25      -15.3565   -3.8773   58.8444 Cl      1  ZINC000124554441   -0.0400
     26 C26       -13.0341   -3.1221   57.6844 C.ar    1  ZINC000124554441   -0.0600
     27 C27       -10.0924   -1.3591   54.4713 C.3     1  ZINC000124554441    0.1200
     28 H28        -2.5170    3.7105   49.4823 H       1  ZINC000124554441    0.0500
     29 H29        -2.5974    2.9194   51.0748 H       1  ZINC000124554441    0.0500
     30 H30        -1.6881    2.1579   49.7478 H       1  ZINC000124554441    0.0500
     31 H31        -3.7985    1.8358   48.4863 H       1  ZINC000124554441    0.0600
     32 H32        -3.8789    1.0447   50.0789 H       1  ZINC000124554441    0.0600
     33 H33        -4.9743    3.2034   50.9374 H       1  ZINC000124554441    0.0600
     34 H34        -5.1369    3.6827   49.2309 H       1  ZINC000124554441    0.0600
     35 H35        -6.9970    2.4156   49.0651 H       1  ZINC000124554441    0.0700
     36 H36        -6.0356    0.9701   49.4578 H       1  ZINC000124554441    0.0700
     37 H37        -6.8205    2.7892   51.7177 H       1  ZINC000124554441    0.0700
     38 H38        -8.0837    1.7579   51.0042 H       1  ZINC000124554441    0.0700
     39 H39        -6.6085   -0.2309   51.3330 H       1  ZINC000124554441    0.0700
     40 H40        -5.4001    0.8179   52.1127 H       1  ZINC000124554441    0.0700
     41 H41        -6.7773    0.8927   54.0108 H       1  ZINC000124554441    0.4000
     42 H42        -9.1987    1.9465   54.8638 H       1  ZINC000124554441    0.0800
     43 H43       -10.6250    1.2674   54.0442 H       1  ZINC000124554441    0.0800
     44 H44        -9.8748    0.7959   56.9655 H       1  ZINC000124554441    0.0700
     45 H45       -11.1407    1.9095   56.3925 H       1  ZINC000124554441    0.0900
     46 H46       -12.0435   -0.3328   57.1060 H       1  ZINC000124554441    0.1000
     47 H47       -12.3871    0.0480   55.3988 H       1  ZINC000124554441    0.0800
     48 H48       -10.2789   -1.5157   58.8534 H       1  ZINC000124554441    0.1500
     49 H49       -11.6144   -1.5475   60.9153 H       1  ZINC000124554441    0.1500
     50 H50       -13.4257   -3.5622   56.7793 H       1  ZINC000124554441    0.1500
     51 H51       -10.7531   -1.2282   53.6144 H       1  ZINC000124554441    0.0800
     52 H52        -9.5370   -2.2914   54.3681 H       1  ZINC000124554441    0.1000
@<TRIPOS>BOND
     1     1     2    1
     2     1    28    1
     3     1    29    1
     4     1    30    1
     5     2     3    1
     6     2    31    1
     7     2    32    1
     8     3     4    1
     9     3    33    1
    10     3    34    1
    11     4     5    1
    12     4    35    1
    13     4    36    1
    14     5     6    1
    15     5    37    1
    16     5    38    1
    17     6     7    1
    18     6    39    1
    19     6    40    1
    20     7     8   am
    21     7    41    1
    22     8     9    2
    23     8    10    1
    24    10    11    1
    25    10    27    1
    26    10    12    1
    27    12    13    1
    28    12    42    1
    29    12    43    1
    30    13    14    1
    31    13    44    1
    32    13    45    1
    33    14    15    1
    34    14    46    1
    35    14    47    1
    36    15    16   am
    37    15    27    1
    38    16    17    2
    39    16    18    1
    40    18    26   ar
    41    18    19   ar
    42    19    20   ar
    43    19    48    1
    44    20    21   ar
    45    20    49    1
    46    21    22    1
    47    21    24   ar
    48    22    23    3
    49    24    25    1
    50    24    26   ar
    51    26    50    1
    52    27    51    1
    53    27    52    1
@<TRIPOS>SUBSTRUCTURE
     1 ZINC000124554441        1 TEMP              0 ****  ****    0 ROOT


##########                                Name:    ZINC000948289723
##########                DOCK_Rotatable_Bonds:                   6
##########                         Heavy_Atoms:                  24
##########                    Molecular_Weight:             331.415
##########                DOCK_Rotatable_Bonds:                   6
##########                       Formal_Charge:           0.0599999
##########                     HBond_Acceptors:                   6
##########                        HBond_Donors:                   1
##########                         Heavy_Atoms:                  24
##########                          Grid_Score:          -33.074295
##########                     Grid_vdw_energy:          -32.520370
##########                      Grid_es_energy:           -0.553924
##########           Internal_energy_repulsive:            6.789119

@<TRIPOS>MOLECULE
ZINC000948289723
 49 52 1 0 0
SMALL
USER_CHARGES


@<TRIPOS>ATOM
      1 C1        -11.0913   -1.0466   54.7244 C.3     1  ZINC000948289723   -0.1400
      2 C2        -10.4249    0.2116   54.1640 C.3     1  ZINC000948289723   -0.1100
      3 C3         -8.8889    0.1756   54.2277 C.3     1  ZINC000948289723   -0.1100
      4 C4         -8.8942    0.8313   52.8367 C.3     1  ZINC000948289723   -0.1400
      5 C5         -7.8419    0.2837   51.9072 C.2     1  ZINC000948289723    0.5400
      6 O6         -7.6626   -0.9135   51.8322 O.2     1  ZINC000948289723   -0.5300
      7 N7         -7.1001    1.1243   51.1593 N.am    1  ZINC000948289723   -0.6200
      8 C8         -7.2121    2.5902   51.1519 C.3     1  ZINC000948289723    0.1100
      9 C9         -6.1494    3.1260   50.1694 C.3     1  ZINC000948289723   -0.1100
     10 H10        -6.5880    3.3074   49.1881 H       1  ZINC000948289723    0.1000
     11 C11        -5.5017    4.4004   50.7145 C.3     1  ZINC000948289723   -0.1400
     12 C12        -5.1200    1.9668   50.1048 C.3     1  ZINC000948289723    0.1400
     13 H13        -4.4264    2.0131   50.9442 H       1  ZINC000948289723    0.1200
     14 N14        -4.3985    1.9757   48.8298 N.am    1  ZINC000948289723   -0.7100
     15 C15        -3.1913    1.3841   48.7346 C.2     1  ZINC000948289723    0.6100
     16 O16        -2.7018    0.8417   49.7063 O.2     1  ZINC000948289723   -0.5000
     17 C17        -2.4640    1.3946   47.4512 C.2     1  ZINC000948289723   -0.0900
     18 C18        -1.2148    0.8913   47.2099 C.2     1  ZINC000948289723   -0.1400
     19 C19        -1.0017    1.1586   45.8392 C.2     1  ZINC000948289723    0.0500
     20 C20         0.2252    0.8146   45.0345 C.3     1  ZINC000948289723   -0.0900
     21 C21         1.2877    1.9027   44.8666 C.3     1  ZINC000948289723   -0.1600
     22 C22         1.5547    0.7078   45.7842 C.3     1  ZINC000948289723   -0.1600
     23 N23        -2.0719    1.7596   45.4071 N.2     1  ZINC000948289723   -0.3300
     24 O24        -2.8976    1.8962   46.2794 O.3     1  ZINC000948289723    0.1200
     25 C25        -6.0377    0.7266   50.2177 C.3     1  ZINC000948289723    0.0900
     26 C26       -10.2831    0.2037   52.6328 C.3     1  ZINC000948289723   -0.1200
     27 H27       -10.4985   -1.9214   54.4571 H       1  ZINC000948289723    0.0600
     28 H28       -11.1572   -0.9700   55.8096 H       1  ZINC000948289723    0.0600
     29 H29       -12.0928   -1.1445   54.3055 H       1  ZINC000948289723    0.0600
     30 H30       -10.8582    1.1311   54.5576 H       1  ZINC000948289723    0.0900
     31 H31        -8.4692    0.8104   55.0082 H       1  ZINC000948289723    0.0700
     32 H32        -8.4756   -0.8331   54.2334 H       1  ZINC000948289723    0.1000
     33 H33        -8.9061    1.9208   52.8676 H       1  ZINC000948289723    0.1100
     34 H34        -8.2072    2.8844   50.8182 H       1  ZINC000948289723    0.0800
     35 H35        -7.0233    2.9815   52.1516 H       1  ZINC000948289723    0.0800
     36 H36        -5.0438    4.1904   51.6811 H       1  ZINC000948289723    0.0600
     37 H37        -4.7378    4.7463   50.0180 H       1  ZINC000948289723    0.0600
     38 H38        -6.2620    5.1725   50.8327 H       1  ZINC000948289723    0.0700
     39 H39        -4.7897    2.4074   48.0542 H       1  ZINC000948289723    0.4100
     40 H40        -0.5474    0.4038   47.9050 H       1  ZINC000948289723    0.1800
     41 H41         0.0633    0.1353   44.1976 H       1  ZINC000948289723    0.1300
     42 H42         1.8251    1.9394   43.9190 H       1  ZINC000948289723    0.1100
     43 H43         1.0993    2.8672   45.3381 H       1  ZINC000948289723    0.1000
     44 H44         1.5419    0.8863   46.8594 H       1  ZINC000948289723    0.1000
     45 H45         2.2676   -0.0415   45.4403 H       1  ZINC000948289723    0.1100
     46 H46        -5.4792   -0.1242   50.6080 H       1  ZINC000948289723    0.0900
     47 H47        -6.4697    0.4847   49.2467 H       1  ZINC000948289723    0.0800
     48 H48       -10.2512   -0.7972   52.2024 H       1  ZINC000948289723    0.0900
     49 H49       -10.9892    0.8612   52.1255 H       1  ZINC000948289723    0.0800
@<TRIPOS>BOND
     1     1     2    1
     2     1    27    1
     3     1    28    1
     4     1    29    1
     5     2    26    1
     6     2     3    1
     7     2    30    1
     8     3     4    1
     9     3    31    1
    10     3    32    1
    11     4     5    1
    12     4    26    1
    13     4    33    1
    14     5     6    2
    15     5     7   am
    16     7    25    1
    17     7     8    1
    18     8     9    1
    19     8    34    1
    20     8    35    1
    21     9    10    1
    22     9    11    1
    23     9    12    1
    24    11    36    1
    25    11    37    1
    26    11    38    1
    27    12    13    1
    28    12    14    1
    29    12    25    1
    30    14    15   am
    31    14    39    1
    32    15    16    2
    33    15    17    1
    34    17    24    1
    35    17    18    2
    36    18    19    1
    37    18    40    1
    38    19    20    1
    39    19    23    2
    40    20    22    1
    41    20    21    1
    42    20    41    1
    43    21    22    1
    44    21    42    1
    45    21    43    1
    46    22    44    1
    47    22    45    1
    48    23    24    1
    49    25    46    1
    50    25    47    1
    51    26    48    1
    52    26    49    1
@<TRIPOS>SUBSTRUCTURE
     1 ZINC000948289723        1 TEMP              0 ****  ****    0 ROOT


##########                                Name:    ZINC000772422035
##########                DOCK_Rotatable_Bonds:                  10
##########                         Heavy_Atoms:                  25
##########                    Molecular_Weight:             348.399
##########                DOCK_Rotatable_Bonds:                  10
##########                       Formal_Charge:          0.00999987
##########                     HBond_Acceptors:                   7
##########                        HBond_Donors:                   0
##########                         Heavy_Atoms:                  25
##########                          Grid_Score:          -32.996178
##########                     Grid_vdw_energy:          -32.346241
##########                      Grid_es_energy:           -0.649938
##########           Internal_energy_repulsive:           17.115234

@<TRIPOS>MOLECULE
ZINC000772422035
 49 50 1 0 0
SMALL
USER_CHARGES


@<TRIPOS>ATOM
      1 C1         -7.7909   -0.3887   64.3875 C.3     1  ZINC000772422035    0.0300
      2 O2         -8.8548    0.5616   64.3035 O.3     1  ZINC000772422035   -0.3900
      3 C3         -9.7142    0.3740   63.1774 C.3     1  ZINC000772422035    0.0600
      4 C4         -8.9120    0.5570   61.8875 C.3     1  ZINC000772422035    0.0700
      5 O5         -9.7839    0.4312   60.7624 O.3     1  ZINC000772422035   -0.3000
      6 C6         -9.2327    0.5997   59.5341 C.ar    1  ZINC000772422035    0.3300
      7 C7        -10.0038    0.3858   58.3991 C.ar    1  ZINC000772422035   -0.1700
      8 C8         -9.4295    0.5613   57.1519 C.ar    1  ZINC000772422035   -0.0200
      9 C9        -10.2321    0.3397   55.8958 C.3     1  ZINC000772422035    0.1100
     10 O10       -11.2577   -0.6572   56.1463 O.3     1  ZINC000772422035   -0.3500
     11 C11       -10.8610   -1.9382   56.2053 C.2     1  ZINC000772422035    0.4700
     12 O12        -9.7285   -2.2342   55.9057 O.2     1  ZINC000772422035   -0.5000
     13 C13       -11.8280   -3.0069   56.6453 C.3     1  ZINC000772422035   -0.1100
     14 C14       -11.7657   -3.1561   58.1667 C.3     1  ZINC000772422035    0.0000
     15 H15       -11.4419   -2.2148   58.6110 H       1  ZINC000772422035    0.1000
     16 C16       -10.7716   -4.2606   58.5307 C.3     1  ZINC000772422035   -0.1500
     17 C17       -13.1314   -3.5161   58.6925 C.2     1  ZINC000772422035   -0.2000
     18 C18       -13.7742   -2.9997   59.7671 C.2     1  ZINC000772422035   -0.0200
     19 C19       -13.2615   -1.9307   60.6973 C.3     1  ZINC000772422035   -0.0800
     20 O20       -14.9564   -3.6274   59.8398 O.3     1  ZINC000772422035    0.1000
     21 N21       -15.0847   -4.4380   58.9517 N.2     1  ZINC000772422035   -0.3600
     22 C22       -14.0408   -4.4667   58.1745 C.2     1  ZINC000772422035    0.0300
     23 C23       -13.8377   -5.3461   56.9677 C.3     1  ZINC000772422035   -0.0800
     24 C24        -8.0978    0.9462   57.0846 C.ar    1  ZINC000772422035   -0.1900
     25 C25        -7.3910    1.1412   58.2547 C.ar    1  ZINC000772422035    0.1400
     26 N26        -7.9676    0.9715   59.4293 N.ar    1  ZINC000772422035   -0.5300
     27 H27        -7.1844   -0.1784   65.2684 H       1  ZINC000772422035    0.0900
     28 H28        -8.2065   -1.3934   64.4639 H       1  ZINC000772422035    0.0400
     29 H29        -7.1703   -0.3192   63.4941 H       1  ZINC000772422035    0.0400
     30 H30       -10.1344   -0.6314   63.2044 H       1  ZINC000772422035    0.0600
     31 H31       -10.5213    1.1060   63.2103 H       1  ZINC000772422035    0.0700
     32 H32        -8.4527    1.5455   61.8825 H       1  ZINC000772422035    0.0800
     33 H33        -8.1347   -0.2051   61.8320 H       1  ZINC000772422035    0.0800
     34 H34       -11.0376    0.0863   58.4883 H       1  ZINC000772422035    0.1400
     35 H35       -10.7015    1.2761   55.5946 H       1  ZINC000772422035    0.0900
     36 H36        -9.5733   -0.0088   55.1004 H       1  ZINC000772422035    0.0900
     37 H37       -12.8387   -2.7268   56.3486 H       1  ZINC000772422035    0.1100
     38 H38       -11.5610   -3.9539   56.1762 H       1  ZINC000772422035    0.1100
     39 H39       -11.0232   -5.1701   57.9852 H       1  ZINC000772422035    0.0600
     40 H40        -9.7632   -3.9442   58.2640 H       1  ZINC000772422035    0.0800
     41 H41       -10.8201   -4.4544   59.6023 H       1  ZINC000772422035    0.0600
     42 H42       -13.4775   -0.9487   60.2762 H       1  ZINC000772422035    0.0900
     43 H43       -13.7518   -2.0265   61.6661 H       1  ZINC000772422035    0.0900
     44 H44       -12.1847   -2.0437   60.8222 H       1  ZINC000772422035    0.0900
     45 H45       -14.1403   -4.8068   56.0702 H       1  ZINC000772422035    0.0800
     46 H46       -12.7854   -5.6193   56.8901 H       1  ZINC000772422035    0.0800
     47 H47       -14.4406   -6.2485   57.0700 H       1  ZINC000772422035    0.0800
     48 H48        -7.6193    1.0913   56.1273 H       1  ZINC000772422035    0.1400
     49 H49        -6.3545    1.4409   58.2079 H       1  ZINC000772422035    0.1700
@<TRIPOS>BOND
     1     1     2    1
     2     1    27    1
     3     1    28    1
     4     1    29    1
     5     2     3    1
     6     3     4    1
     7     3    30    1
     8     3    31    1
     9     4     5    1
    10     4    32    1
    11     4    33    1
    12     5     6    1
    13     6    26   ar
    14     6     7   ar
    15     7     8   ar
    16     7    34    1
    17     8     9    1
    18     8    24   ar
    19     9    10    1
    20     9    35    1
    21     9    36    1
    22    10    11    1
    23    11    12    2
    24    11    13    1
    25    13    14    1
    26    13    37    1
    27    13    38    1
    28    14    15    1
    29    14    16    1
    30    14    17    1
    31    16    39    1
    32    16    40    1
    33    16    41    1
    34    17    22    1
    35    17    18    2
    36    18    19    1
    37    18    20    1
    38    19    42    1
    39    19    43    1
    40    19    44    1
    41    20    21    1
    42    21    22    2
    43    22    23    1
    44    23    45    1
    45    23    46    1
    46    23    47    1
    47    24    25   ar
    48    24    48    1
    49    25    26   ar
    50    25    49    1
@<TRIPOS>SUBSTRUCTURE
     1 ZINC000772422035        1 TEMP              0 ****  ****    0 ROOT


##########                                Name:    ZINC000770850676
##########                DOCK_Rotatable_Bonds:                  13
##########                         Heavy_Atoms:                  30
##########                    Molecular_Weight:             412.486
##########                DOCK_Rotatable_Bonds:                  13
##########                       Formal_Charge:          -0.0299994
##########                     HBond_Acceptors:                   7
##########                        HBond_Donors:                   3
##########                         Heavy_Atoms:                  30
##########                          Grid_Score:          -32.990036
##########                     Grid_vdw_energy:          -31.010593
##########                      Grid_es_energy:           -1.979442
##########           Internal_energy_repulsive:           21.830128

@<TRIPOS>MOLECULE
ZINC000770850676
 58 60 1 0 0
SMALL
USER_CHARGES


@<TRIPOS>ATOM
      1 O1         -0.9888    3.2749   46.4646 O.2     1  ZINC000770850676   -0.5300
      2 C2         -0.7435    2.5940   47.4378 C.2     1  ZINC000770850676    0.5100
      3 N3         -0.2085    1.3666   47.2839 N.am    1  ZINC000770850676   -0.7000
      4 C4          0.0712    0.8525   45.9409 C.3     1  ZINC000770850676    0.1600
      5 H5          0.1386    1.6846   45.2401 H       1  ZINC000770850676    0.1000
      6 C6         -1.0564   -0.0874   45.5095 C.3     1  ZINC000770850676    0.0600
      7 O7         -2.0213    0.6434   44.7500 O.3     1  ZINC000770850676   -0.5700
      8 C8          1.3962    0.0875   45.9532 C.3     1  ZINC000770850676   -0.1500
      9 C9          2.4762    0.9488   46.6109 C.3     1  ZINC000770850676    0.1500
     10 H10         2.2049    1.1418   47.6488 H       1  ZINC000770850676    0.1100
     11 O11         3.7275    0.2602   46.5658 O.3     1  ZINC000770850676   -0.5400
     12 C12         2.5955    2.2564   45.8713 C.ar    1  ZINC000770850676   -0.1200
     13 C13         2.9908    3.3975   46.5442 C.ar    1  ZINC000770850676   -0.1100
     14 C14         3.1002    4.5969   45.8658 C.ar    1  ZINC000770850676   -0.1200
     15 C15         2.8149    4.6553   44.5145 C.ar    1  ZINC000770850676   -0.1200
     16 C16         2.4205    3.5140   43.8415 C.ar    1  ZINC000770850676   -0.1200
     17 C17         2.3152    2.3137   44.5189 C.ar    1  ZINC000770850676   -0.1100
     18 C18        -1.0312    3.1228   48.8194 C.3     1  ZINC000770850676    0.1400
     19 H19        -1.4032    4.1453   48.7548 H       1  ZINC000770850676    0.1000
     20 C20         0.2533    3.0847   49.6738 C.3     1  ZINC000770850676   -0.1200
     21 C21        -0.2713    2.6613   51.0713 C.3     1  ZINC000770850676   -0.1300
     22 C22        -1.4111    1.6831   50.6923 C.3     1  ZINC000770850676    0.1000
     23 N23        -2.0269    2.2694   49.4841 N.am    1  ZINC000770850676   -0.5900
     24 C24        -3.2891    2.0550   49.0628 C.2     1  ZINC000770850676    0.6700
     25 O25        -3.6907    2.5915   48.0492 O.2     1  ZINC000770850676   -0.5600
     26 O26        -4.1049    1.2464   49.7651 O.3     1  ZINC000770850676   -0.3600
     27 C27        -5.4752    1.6905   49.9482 C.3     1  ZINC000770850676    0.1300
     28 C28        -6.0236    1.1132   51.2277 C.ar    1  ZINC000770850676   -0.1000
     29 C29        -5.9460    1.8383   52.4021 C.ar    1  ZINC000770850676   -0.0900
     30 C30        -6.4491    1.3087   53.5758 C.ar    1  ZINC000770850676   -0.1200
     31 C31        -7.0300    0.0544   53.5749 C.ar    1  ZINC000770850676   -0.1100
     32 C32        -7.1083   -0.6703   52.4004 C.ar    1  ZINC000770850676   -0.1200
     33 C33        -6.6092   -0.1390   51.2258 C.ar    1  ZINC000770850676   -0.0900
     34 H34        -0.0087    0.8235   48.0624 H       1  ZINC000770850676    0.4000
     35 H35        -0.6456   -0.8910   44.8983 H       1  ZINC000770850676    0.0500
     36 H36        -1.5344   -0.5109   46.3930 H       1  ZINC000770850676    0.0500
     37 H37        -2.3368    1.4476   45.1846 H       1  ZINC000770850676    0.3800
     38 H38         1.2762   -0.8378   46.5168 H       1  ZINC000770850676    0.0800
     39 H39         1.6905   -0.1458   44.9301 H       1  ZINC000770850676    0.0900
     40 H40         3.7244   -0.5918   47.0231 H       1  ZINC000770850676    0.3700
     41 H41         3.2138    3.3519   47.6000 H       1  ZINC000770850676    0.1200
     42 H42         3.4083    5.4885   46.3916 H       1  ZINC000770850676    0.1200
     43 H43         2.8996    5.5925   43.9846 H       1  ZINC000770850676    0.1200
     44 H44         2.1972    3.5596   42.7858 H       1  ZINC000770850676    0.1200
     45 H45         2.0070    1.4220   43.9931 H       1  ZINC000770850676    0.1200
     46 H46         0.9536    2.3455   49.2847 H       1  ZINC000770850676    0.0800
     47 H47         0.7165    4.0704   49.7182 H       1  ZINC000770850676    0.1000
     48 H48         0.5055    2.1534   51.6429 H       1  ZINC000770850676    0.0900
     49 H49        -0.6594    3.5199   51.6195 H       1  ZINC000770850676    0.0800
     50 H50        -1.0059    0.6955   50.4720 H       1  ZINC000770850676    0.0700
     51 H51        -2.1427    1.6227   51.4981 H       1  ZINC000770850676    0.0900
     52 H52        -5.5004    2.7790   50.0005 H       1  ZINC000770850676    0.0800
     53 H53        -6.0819    1.3530   49.1079 H       1  ZINC000770850676    0.0800
     54 H54        -5.4922    2.8183   52.4027 H       1  ZINC000770850676    0.1200
     55 H55        -6.3879    1.8749   54.4934 H       1  ZINC000770850676    0.1300
     56 H56        -7.4223   -0.3596   54.4921 H       1  ZINC000770850676    0.1300
     57 H57        -7.5618   -1.6504   52.3999 H       1  ZINC000770850676    0.1300
     58 H58        -6.6703   -0.7051   50.3082 H       1  ZINC000770850676    0.1200
@<TRIPOS>BOND
     1     1     2    2
     2     2     3   am
     3     2    18    1
     4     3     4    1
     5     3    34    1
     6     4     5    1
     7     4     6    1
     8     4     8    1
     9     6     7    1
    10     6    35    1
    11     6    36    1
    12     7    37    1
    13     8     9    1
    14     8    38    1
    15     8    39    1
    16     9    10    1
    17     9    11    1
    18     9    12    1
    19    11    40    1
    20    12    17   ar
    21    12    13   ar
    22    13    14   ar
    23    13    41    1
    24    14    15   ar
    25    14    42    1
    26    15    16   ar
    27    15    43    1
    28    16    17   ar
    29    16    44    1
    30    17    45    1
    31    18    19    1
    32    18    23    1
    33    18    20    1
    34    20    21    1
    35    20    46    1
    36    20    47    1
    37    21    22    1
    38    21    48    1
    39    21    49    1
    40    22    23    1
    41    22    50    1
    42    22    51    1
    43    23    24   am
    44    24    25    2
    45    24    26    1
    46    26    27    1
    47    27    28    1
    48    27    52    1
    49    27    53    1
    50    28    33   ar
    51    28    29   ar
    52    29    30   ar
    53    29    54    1
    54    30    31   ar
    55    30    55    1
    56    31    32   ar
    57    31    56    1
    58    32    33   ar
    59    32    57    1
    60    33    58    1
@<TRIPOS>SUBSTRUCTURE
     1 ZINC000770850676        1 TEMP              0 ****  ****    0 ROOT


##########                                Name:    ZINC000863246516
##########                DOCK_Rotatable_Bonds:                   5
##########                         Heavy_Atoms:                  25
##########                    Molecular_Weight:             356.489
##########                DOCK_Rotatable_Bonds:                   5
##########                       Formal_Charge:         -0.00999938
##########                     HBond_Acceptors:                   5
##########                        HBond_Donors:                   0
##########                         Heavy_Atoms:                  25
##########                          Grid_Score:          -32.985954
##########                     Grid_vdw_energy:          -32.106697
##########                      Grid_es_energy:           -0.879255
##########           Internal_energy_repulsive:           12.625170

@<TRIPOS>MOLECULE
ZINC000863246516
 49 52 1 0 0
SMALL
USER_CHARGES


@<TRIPOS>ATOM
      1 C1          3.0997    0.3636   43.7122 C.3     1  ZINC000863246516   -0.0600
      2 C2          1.6631    0.3685   44.1676 C.2     1  ZINC000863246516   -0.2000
      3 C3          1.2035    0.6641   45.3754 C.2     1  ZINC000863246516    0.0900
      4 C4          2.1282    1.0535   46.4998 C.3     1  ZINC000863246516   -0.1000
      5 N5         -0.1468    0.5990   45.5500 N.am    1  ZINC000863246516   -0.5300
      6 C6         -0.7646    0.9054   46.8425 C.3     1  ZINC000863246516    0.1200
      7 C7         -1.6355    2.1561   46.7078 C.3     1  ZINC000863246516   -0.1500
      8 C8         -1.4636    3.0219   47.9292 C.2     1  ZINC000863246516    0.5400
      9 O9         -0.4197    3.6116   48.1126 O.2     1  ZINC000863246516   -0.5300
     10 N10        -2.4698    3.1407   48.8180 N.am    1  ZINC000863246516   -0.6100
     11 C11        -2.4295    3.9487   50.0422 C.3     1  ZINC000863246516    0.1100
     12 C12        -3.8907    4.1587   50.4829 C.3     1  ZINC000863246516   -0.1300
     13 H13        -4.3139    5.1351   50.2476 H       1  ZINC000863246516    0.1000
     14 C14        -4.1817    3.6080   51.8888 C.3     1  ZINC000863246516   -0.1200
     15 C15        -4.2434    2.2108   51.2510 C.3     1  ZINC000863246516   -0.0600
     16 H16        -3.2786    1.7047   51.2156 H       1  ZINC000863246516    0.1000
     17 C17        -5.3396    1.3408   51.8101 C.ar    1  ZINC000863246516   -0.0700
     18 C18        -5.9060    0.3533   51.0260 C.ar    1  ZINC000863246516   -0.1200
     19 C19        -6.9116   -0.4446   51.5389 C.ar    1  ZINC000863246516   -0.1200
     20 C20        -7.3505   -0.2554   52.8360 C.ar    1  ZINC000863246516   -0.1200
     21 C21        -6.7833    0.7316   53.6204 C.ar    1  ZINC000863246516   -0.1200
     22 C22        -5.7748    1.5268   53.1089 C.ar    1  ZINC000863246516   -0.1200
     23 C23        -4.6241    2.9165   49.9182 C.3     1  ZINC000863246516   -0.1100
     24 H24        -5.6915    3.0234   49.7253 H       1  ZINC000863246516    0.1200
     25 C25        -3.7784    2.4877   48.7098 C.3     1  ZINC000863246516    0.1200
     26 C26        -0.8871    0.2431   44.4882 C.2     1  ZINC000863246516    0.4800
     27 O27        -2.0992    0.1288   44.4434 O.2     1  ZINC000863246516   -0.4700
     28 S28         0.2276   -0.0123   43.2006 S.3     1  ZINC000863246516    0.0100
     29 H29         3.1465    0.0817   42.6604 H       1  ZINC000863246516    0.0700
     30 H30         3.5251    1.3589   43.8409 H       1  ZINC000863246516    0.0800
     31 H31         3.6666   -0.3534   44.3061 H       1  ZINC000863246516    0.0800
     32 H32         3.1584    1.0413   46.1437 H       1  ZINC000863246516    0.0900
     33 H33         1.8758    2.0552   46.8475 H       1  ZINC000863246516    0.0800
     34 H34         2.0195    0.3456   47.3215 H       1  ZINC000863246516    0.0800
     35 H35        -1.3824    0.0647   47.1583 H       1  ZINC000863246516    0.1000
     36 H36         0.0140    1.0830   47.5843 H       1  ZINC000863246516    0.1000
     37 H37        -1.3347    2.7146   45.8214 H       1  ZINC000863246516    0.1000
     38 H38        -2.6811    1.8624   46.6147 H       1  ZINC000863246516    0.1000
     39 H39        -1.8777    3.4205   50.8198 H       1  ZINC000863246516    0.0700
     40 H40        -1.9595    4.9109   49.8388 H       1  ZINC000863246516    0.0800
     41 H41        -3.3531    3.7326   52.5859 H       1  ZINC000863246516    0.0800
     42 H42        -5.1345    3.9422   52.2993 H       1  ZINC000863246516    0.0900
     43 H43        -5.5631    0.2053   50.0127 H       1  ZINC000863246516    0.1200
     44 H44        -7.3546   -1.2158   50.9260 H       1  ZINC000863246516    0.1200
     45 H45        -8.1365   -0.8783   53.2364 H       1  ZINC000863246516    0.1200
     46 H46        -7.1265    0.8798   54.6336 H       1  ZINC000863246516    0.1200
     47 H47        -5.3318    2.2979   53.7217 H       1  ZINC000863246516    0.1200
     48 H48        -4.2782    2.7823   47.7870 H       1  ZINC000863246516    0.0700
     49 H49        -3.6371    1.4070   48.7237 H       1  ZINC000863246516    0.0700
@<TRIPOS>BOND
     1     1     2    1
     2     1    29    1
     3     1    30    1
     4     1    31    1
     5     2    28    1
     6     2     3    2
     7     3     4    1
     8     3     5    1
     9     4    32    1
    10     4    33    1
    11     4    34    1
    12     5     6    1
    13     5    26   am
    14     6     7    1
    15     6    35    1
    16     6    36    1
    17     7     8    1
    18     7    37    1
    19     7    38    1
    20     8     9    2
    21     8    10   am
    22    10    25    1
    23    10    11    1
    24    11    12    1
    25    11    39    1
    26    11    40    1
    27    12    13    1
    28    12    23    1
    29    12    14    1
    30    14    15    1
    31    14    41    1
    32    14    42    1
    33    15    16    1
    34    15    17    1
    35    15    23    1
    36    17    22   ar
    37    17    18   ar
    38    18    19   ar
    39    18    43    1
    40    19    20   ar
    41    19    44    1
    42    20    21   ar
    43    20    45    1
    44    21    22   ar
    45    21    46    1
    46    22    47    1
    47    23    24    1
    48    23    25    1
    49    25    48    1
    50    25    49    1
    51    26    27    2
    52    26    28    1
@<TRIPOS>SUBSTRUCTURE
     1 ZINC000863246516        1 TEMP              0 ****  ****    0 ROOT


##########                                Name:    ZINC000504243286
##########                DOCK_Rotatable_Bonds:                   7
##########                         Heavy_Atoms:                  29
##########                    Molecular_Weight:             408.337
##########                DOCK_Rotatable_Bonds:                   7
##########                       Formal_Charge:           0.0299994
##########                     HBond_Acceptors:                  11
##########                        HBond_Donors:                   3
##########                         Heavy_Atoms:                  29
##########                          Grid_Score:          -32.982323
##########                     Grid_vdw_energy:          -31.383190
##########                      Grid_es_energy:           -1.599134
##########           Internal_energy_repulsive:           11.392058

@<TRIPOS>MOLECULE
ZINC000504243286
 44 46 1 0 0
SMALL
USER_CHARGES


@<TRIPOS>ATOM
      1 O1         -6.5252    0.7943   49.7017 O.2     1  ZINC000504243286   -0.5200
      2 C2         -6.4300    0.7089   50.9079 C.2     1  ZINC000504243286    0.5200
      3 C3         -7.5018    0.0059   51.7004 C.3     1  ZINC000504243286   -0.1600
      4 C4         -7.2471    0.2096   53.1953 C.3     1  ZINC000504243286    0.1300
      5 N5         -8.3169   -0.4306   53.9646 N.pl3   1  ZINC000504243286   -0.7200
      6 C6         -8.3935   -0.2406   55.3462 C.ar    1  ZINC000504243286    0.3100
      7 C7         -7.4566    0.5557   55.9921 C.ar    1  ZINC000504243286   -0.1900
      8 C8         -7.5355    0.7420   57.3585 C.ar    1  ZINC000504243286    0.0200
      9 C9         -8.5456    0.1368   58.0832 C.ar    1  ZINC000504243286   -0.2400
     10 C10        -8.6288    0.3427   59.5737 C.3     1  ZINC000504243286    0.5200
     11 F11        -8.2330    1.6474   59.8870 F       1  ZINC000504243286   -0.1700
     12 F12        -9.9458    0.1400   59.9997 F       1  ZINC000504243286   -0.1700
     13 F13        -7.7848   -0.5681   60.2181 F       1  ZINC000504243286   -0.1700
     14 C14        -9.4802   -0.6567   57.4430 C.ar    1  ZINC000504243286    0.0400
     15 C15        -9.4102   -0.8429   56.0766 C.ar    1  ZINC000504243286   -0.1200
     16 N16       -10.4107   -1.6922   55.3925 N.pl3   1  ZINC000504243286    0.0400
     17 O17       -10.8203   -1.3817   54.2882 O.2     1  ZINC000504243286   -0.1700
     18 O18       -10.8247   -2.7018   55.9336 O.2     1  ZINC000504243286   -0.1400
     19 N19        -5.3629    1.2378   51.5387 N.am    1  ZINC000504243286   -0.6700
     20 C20        -4.3666    1.8912   50.8020 C.ar    1  ZINC000504243286    0.1200
     21 C21        -4.2829    3.2771   50.8181 C.ar    1  ZINC000504243286   -0.1000
     22 C22        -3.3030    3.9233   50.0943 C.ar    1  ZINC000504243286   -0.1200
     23 C23        -2.3892    3.1898   49.3403 C.ar    1  ZINC000504243286    0.1300
     24 N24        -1.3259    3.6084   48.5366 N.am    1  ZINC000504243286   -0.6600
     25 C25        -0.6784    2.5755   47.9717 C.2     1  ZINC000504243286    0.5300
     26 O26         0.2791    2.6441   47.2303 O.2     1  ZINC000504243286   -0.5000
     27 C27        -1.3680    1.3098   48.4345 C.3     1  ZINC000504243286   -0.1200
     28 C28        -2.4809    1.8033   49.3303 C.ar    1  ZINC000504243286   -0.1200
     29 C29        -3.4536    1.1550   50.0558 C.ar    1  ZINC000504243286   -0.0600
     30 H30        -8.4764    0.4177   51.4385 H       1  ZINC000504243286    0.1100
     31 H31        -7.4837   -1.0594   51.4707 H       1  ZINC000504243286    0.1100
     32 H32        -6.2894   -0.2357   53.4647 H       1  ZINC000504243286    0.0800
     33 H33        -7.2275    1.2763   53.4184 H       1  ZINC000504243286    0.0900
     34 H34        -8.9721   -0.9865   53.5145 H       1  ZINC000504243286    0.4100
     35 H35        -6.6672    1.0285   55.4268 H       1  ZINC000504243286    0.1600
     36 H36        -6.8071    1.3608   57.8616 H       1  ZINC000504243286    0.1600
     37 H37       -10.2680   -1.1281   58.0120 H       1  ZINC000504243286    0.1600
     38 H38        -5.2847    1.1659   52.5029 H       1  ZINC000504243286    0.4200
     39 H39        -4.9885    3.8515   51.3998 H       1  ZINC000504243286    0.1400
     40 H40        -3.2439    5.0015   50.1116 H       1  ZINC000504243286    0.1300
     41 H41        -1.0829    4.5378   48.4019 H       1  ZINC000504243286    0.4100
     42 H42        -1.7762    0.7644   47.5836 H       1  ZINC000504243286    0.1300
     43 H43        -0.6763    0.6815   48.9957 H       1  ZINC000504243286    0.1300
     44 H44        -3.5099    0.0765   50.0428 H       1  ZINC000504243286    0.1500
@<TRIPOS>BOND
     1     1     2    2
     2     2     3    1
     3     2    19   am
     4     3     4    1
     5     3    30    1
     6     3    31    1
     7     4     5    1
     8     4    32    1
     9     4    33    1
    10     5     6    1
    11     5    34    1
    12     6    15   ar
    13     6     7   ar
    14     7     8   ar
    15     7    35    1
    16     8     9   ar
    17     8    36    1
    18     9    10    1
    19     9    14   ar
    20    10    11    1
    21    10    12    1
    22    10    13    1
    23    14    15   ar
    24    14    37    1
    25    15    16    1
    26    16    17    2
    27    16    18    2
    28    19    20    1
    29    19    38    1
    30    20    29   ar
    31    20    21   ar
    32    21    22   ar
    33    21    39    1
    34    22    23   ar
    35    22    40    1
    36    23    28   ar
    37    23    24    1
    38    24    25   am
    39    24    41    1
    40    25    26    2
    41    25    27    1
    42    27    28    1
    43    27    42    1
    44    27    43    1
    45    28    29   ar
    46    29    44    1
@<TRIPOS>SUBSTRUCTURE
     1 ZINC000504243286        1 TEMP              0 ****  ****    0 ROOT


##########                                Name:    ZINC000046390957
##########                DOCK_Rotatable_Bonds:                   9
##########                         Heavy_Atoms:                  29
##########                    Molecular_Weight:             408.521
##########                DOCK_Rotatable_Bonds:                   9
##########                       Formal_Charge:           0.0100005
##########                     HBond_Acceptors:                   6
##########                        HBond_Donors:                   1
##########                         Heavy_Atoms:                  29
##########                          Grid_Score:          -32.950951
##########                     Grid_vdw_energy:          -32.181870
##########                      Grid_es_energy:           -0.769083
##########           Internal_energy_repulsive:           13.133015

@<TRIPOS>MOLECULE
ZINC000046390957
 53 55 1 0 0
SMALL
USER_CHARGES


@<TRIPOS>ATOM
      1 C1        -10.9361   -3.1333   57.4636 C.3     1  ZINC000046390957   -0.1100
      2 C2        -12.3050   -3.5199   57.9611 C.ar    1  ZINC000046390957   -0.0600
      3 C3        -12.9567   -4.6088   57.4158 C.ar    1  ZINC000046390957   -0.1200
      4 C4        -14.2130   -4.9640   57.8713 C.ar    1  ZINC000046390957   -0.1100
      5 C5        -14.8208   -4.2311   58.8742 C.ar    1  ZINC000046390957   -0.1200
      6 C6        -14.1743   -3.1415   59.4239 C.ar    1  ZINC000046390957   -0.0800
      7 C7        -14.8373   -2.3436   60.5171 C.3     1  ZINC000046390957   -0.1100
      8 C8        -12.9103   -2.7853   58.9723 C.ar    1  ZINC000046390957    0.1300
      9 N9        -12.2525   -1.6822   59.5276 N.am    1  ZINC000046390957   -0.6800
     10 C10       -11.5992   -1.8071   60.6997 C.2     1  ZINC000046390957    0.5200
     11 O11       -11.5816   -2.8756   61.2734 O.2     1  ZINC000046390957   -0.4900
     12 C12       -10.8906   -0.6191   61.2978 C.3     1  ZINC000046390957    0.0700
     13 H13       -10.4621   -0.0122   60.5002 H       1  ZINC000046390957    0.1100
     14 C14       -11.8889    0.2206   62.0973 C.3     1  ZINC000046390957   -0.1700
     15 O15        -9.8315   -1.0797   62.1778 O.3     1  ZINC000046390957   -0.3300
     16 C16        -8.9329   -0.1671   62.5794 C.2     1  ZINC000046390957    0.4700
     17 O17        -8.8112    0.8696   61.9707 O.2     1  ZINC000046390957   -0.4800
     18 C18        -8.0758   -0.4354   63.7896 C.3     1  ZINC000046390957   -0.0300
     19 C19        -8.7855    0.0529   65.0261 C.2     1  ZINC000046390957    0.0800
     20 C20        -8.6188   -0.5119   66.2258 C.2     1  ZINC000046390957   -0.2500
     21 S21        -9.6243    0.3604   67.3801 S.3     1  ZINC000046390957    0.1300
     22 C22       -10.1690    1.3977   66.1348 C.2     1  ZINC000046390957    0.0600
     23 C23       -11.1469    2.5291   66.3206 C.3     1  ZINC000046390957    0.0000
     24 C24       -12.5500    2.0190   66.1147 C.ar    1  ZINC000046390957   -0.0900
     25 C25       -13.2728    1.5319   67.1876 C.ar    1  ZINC000046390957   -0.0900
     26 C26       -14.5597    1.0640   66.9987 C.ar    1  ZINC000046390957   -0.1200
     27 C27       -15.1240    1.0835   65.7370 C.ar    1  ZINC000046390957   -0.1200
     28 C28       -14.4016    1.5715   64.6641 C.ar    1  ZINC000046390957   -0.1200
     29 C29       -13.1162    2.0434   64.8538 C.ar    1  ZINC000046390957   -0.1100
     30 N30        -9.6170    1.0751   65.0140 N.2     1  ZINC000046390957   -0.4500
     31 H31       -10.1820   -3.7363   57.9694 H       1  ZINC000046390957    0.0800
     32 H32       -10.8781   -3.3053   56.3889 H       1  ZINC000046390957    0.0700
     33 H33       -10.7580   -2.0784   57.6729 H       1  ZINC000046390957    0.0600
     34 H34       -12.4845   -5.1832   56.6325 H       1  ZINC000046390957    0.1300
     35 H35       -14.7207   -5.8154   57.4428 H       1  ZINC000046390957    0.1300
     36 H36       -15.8023   -4.5108   59.2276 H       1  ZINC000046390957    0.1300
     37 H37       -14.5680   -2.7622   61.4868 H       1  ZINC000046390957    0.0700
     38 H38       -14.5041   -1.3072   60.4635 H       1  ZINC000046390957    0.0600
     39 H39       -15.9193   -2.3844   60.3915 H       1  ZINC000046390957    0.0700
     40 H40       -12.2665   -0.8277   59.0688 H       1  ZINC000046390957    0.4100
     41 H41       -12.6840    0.5665   61.4367 H       1  ZINC000046390957    0.0800
     42 H42       -12.3174   -0.3861   62.8950 H       1  ZINC000046390957    0.0800
     43 H43       -11.3764    1.0800   62.5299 H       1  ZINC000046390957    0.0800
     44 H44        -7.8924   -1.5065   63.8748 H       1  ZINC000046390957    0.1200
     45 H45        -7.1257    0.0886   63.6852 H       1  ZINC000046390957    0.1300
     46 H46        -7.9805   -1.3542   66.4484 H       1  ZINC000046390957    0.1800
     47 H47       -11.0507    2.9306   67.3294 H       1  ZINC000046390957    0.1000
     48 H48       -10.9358    3.3147   65.5952 H       1  ZINC000046390957    0.1000
     49 H49       -12.8318    1.5167   68.1734 H       1  ZINC000046390957    0.1200
     50 H50       -15.1241    0.6828   67.8369 H       1  ZINC000046390957    0.1200
     51 H51       -16.1293    0.7173   65.5893 H       1  ZINC000046390957    0.1200
     52 H52       -14.8424    1.5865   63.6783 H       1  ZINC000046390957    0.1200
     53 H53       -12.5518    2.4246   64.0156 H       1  ZINC000046390957    0.1200
@<TRIPOS>BOND
     1     1     2    1
     2     1    31    1
     3     1    32    1
     4     1    33    1
     5     2     8   ar
     6     2     3   ar
     7     3     4   ar
     8     3    34    1
     9     4     5   ar
    10     4    35    1
    11     5     6   ar
    12     5    36    1
    13     6     7    1
    14     6     8   ar
    15     7    37    1
    16     7    38    1
    17     7    39    1
    18     8     9    1
    19     9    10   am
    20     9    40    1
    21    10    11    2
    22    10    12    1
    23    12    13    1
    24    12    14    1
    25    12    15    1
    26    14    41    1
    27    14    42    1
    28    14    43    1
    29    15    16    1
    30    16    17    2
    31    16    18    1
    32    18    19    1
    33    18    44    1
    34    18    45    1
    35    19    30    1
    36    19    20    2
    37    20    21    1
    38    20    46    1
    39    21    22    1
    40    22    23    1
    41    22    30    2
    42    23    24    1
    43    23    47    1
    44    23    48    1
    45    24    29   ar
    46    24    25   ar
    47    25    26   ar
    48    25    49    1
    49    26    27   ar
    50    26    50    1
    51    27    28   ar
    52    27    51    1
    53    28    29   ar
    54    28    52    1
    55    29    53    1
@<TRIPOS>SUBSTRUCTURE
     1 ZINC000046390957        1 TEMP              0 ****  ****    0 ROOT


##########                                Name:    ZINC000004313955
##########                DOCK_Rotatable_Bonds:                   6
##########                         Heavy_Atoms:                  26
##########                    Molecular_Weight:             414.358
##########                DOCK_Rotatable_Bonds:                   6
##########                       Formal_Charge:           0.0299997
##########                     HBond_Acceptors:                   9
##########                        HBond_Donors:                   2
##########                         Heavy_Atoms:                  26
##########                          Grid_Score:          -32.948048
##########                     Grid_vdw_energy:          -30.505358
##########                      Grid_es_energy:           -2.442689
##########           Internal_energy_repulsive:           14.638139

@<TRIPOS>MOLECULE
ZINC000004313955
 47 49 1 0 0
SMALL
USER_CHARGES


@<TRIPOS>ATOM
      1 C1          1.7882    3.5689   46.8642 C.3     1  ZINC000004313955   -0.1500
      2 C2          1.8500    2.3862   45.8955 C.3     1  ZINC000004313955   -0.1100
      3 H3          1.9069    1.4558   46.4603 H       1  ZINC000004313955    0.0800
      4 C4          3.0873    2.5196   45.0048 C.3     1  ZINC000004313955   -0.1100
      5 C5          3.1679    1.3202   44.0576 C.3     1  ZINC000004313955   -0.1100
      6 H6          4.0620    1.4041   43.4397 H       1  ZINC000004313955    0.0900
      7 C7          3.2309    0.0279   44.8743 C.3     1  ZINC000004313955   -0.1500
      8 C8          1.9264    1.2989   43.1604 C.3     1  ZINC000004313955    0.1200
      9 N9          0.7282    1.3170   44.0106 N.am    1  ZINC000004313955   -0.6000
     10 C10        -0.2289    0.3788   43.8684 C.2     1  ZINC000004313955    0.5400
     11 O11        -0.1064   -0.4904   43.0314 O.2     1  ZINC000004313955   -0.5300
     12 C12        -1.4513    0.4099   44.7492 C.3     1  ZINC000004313955   -0.1400
     13 S13        -1.0112   -0.1539   46.4120 S.3     1  ZINC000004313955    0.0800
     14 C14        -1.9909    0.9473   47.3775 C.2     1  ZINC000004313955    0.1100
     15 N15        -2.6274    2.0110   46.9412 N.2     1  ZINC000004313955   -0.2800
     16 N16        -3.2444    2.5851   47.9114 N.2     1  ZINC000004313955   -0.2400
     17 C17        -3.0400    1.9233   49.0266 C.2     1  ZINC000004313955    0.2500
     18 C18        -3.5776    2.2632   50.3610 C.ar    1  ZINC000004313955   -0.0100
     19 C19        -4.7703    1.6889   50.8029 C.ar    1  ZINC000004313955   -0.0700
     20 C20        -5.2673    2.0099   52.0490 C.ar    1  ZINC000004313955   -0.1100
     21 C21        -4.5859    2.9003   52.8615 C.ar    1  ZINC000004313955   -0.0100
     22 Cl22       -5.2187    3.2992   54.4281 Cl      1  ZINC000004313955   -0.0500
     23 C23        -3.4017    3.4737   52.4299 C.ar    1  ZINC000004313955   -0.1100
     24 C24        -2.8910    3.1562   51.1873 C.ar    1  ZINC000004313955    0.0100
     25 Cl25       -1.4063    3.8757   50.6471 Cl      1  ZINC000004313955   -0.0100
     26 N26        -2.2353    0.8509   48.7180 N.pl3   1  ZINC000004313955   -0.3000
     27 N27        -1.7709   -0.1061   49.5750 N.3     1  ZINC000004313955   -0.5800
     28 C28         0.5931    2.3765   45.0197 C.3     1  ZINC000004313955    0.1100
     29 H29         0.9061    3.4740   47.4976 H       1  ZINC000004313955    0.0600
     30 H30         2.6831    3.5760   47.4863 H       1  ZINC000004313955    0.0600
     31 H31         1.7312    4.4990   46.2989 H       1  ZINC000004313955    0.0600
     32 H32         3.0182    3.4384   44.4223 H       1  ZINC000004313955    0.0700
     33 H33         3.9813    2.5513   45.6276 H       1  ZINC000004313955    0.0700
     34 H34         2.3362   -0.0560   45.4912 H       1  ZINC000004313955    0.0600
     35 H35         3.2883   -0.8259   44.1993 H       1  ZINC000004313955    0.0600
     36 H36         4.1132    0.0452   45.5142 H       1  ZINC000004313955    0.0600
     37 H37         1.9284    2.1757   42.5130 H       1  ZINC000004313955    0.0700
     38 H38         1.9300    0.3937   42.5532 H       1  ZINC000004313955    0.1000
     39 H39        -1.8360    1.4284   44.8008 H       1  ZINC000004313955    0.1300
     40 H40        -2.2155   -0.2466   44.3334 H       1  ZINC000004313955    0.1300
     41 H41        -5.3034    0.9946   50.1702 H       1  ZINC000004313955    0.1600
     42 H42        -6.1903    1.5658   52.3917 H       1  ZINC000004313955    0.1500
     43 H43        -2.8748    4.1676   53.0680 H       1  ZINC000004313955    0.1500
     44 H44        -1.1685   -0.7587   49.0962 H       1  ZINC000004313955    0.3700
     45 H45        -1.2979    0.3121   50.3621 H       1  ZINC000004313955    0.3800
     46 H46        -0.2829    2.1822   45.6383 H       1  ZINC000004313955    0.0900
     47 H47         0.4864    3.3415   44.5242 H       1  ZINC000004313955    0.0800
@<TRIPOS>BOND
     1     1     2    1
     2     1    29    1
     3     1    30    1
     4     1    31    1
     5     2     3    1
     6     2    28    1
     7     2     4    1
     8     4     5    1
     9     4    32    1
    10     4    33    1
    11     5     6    1
    12     5     7    1
    13     5     8    1
    14     7    34    1
    15     7    35    1
    16     7    36    1
    17     8     9    1
    18     8    37    1
    19     8    38    1
    20     9    10   am
    21     9    28    1
    22    10    11    2
    23    10    12    1
    24    12    13    1
    25    12    39    1
    26    12    40    1
    27    13    14    1
    28    14    26    1
    29    14    15    2
    30    15    16    1
    31    16    17    2
    32    17    18    1
    33    17    26    1
    34    18    24   ar
    35    18    19   ar
    36    19    20   ar
    37    19    41    1
    38    20    21   ar
    39    20    42    1
    40    21    22    1
    41    21    23   ar
    42    23    24   ar
    43    23    43    1
    44    24    25    1
    45    26    27    1
    46    27    44    1
    47    27    45    1
    48    28    46    1
    49    28    47    1
@<TRIPOS>SUBSTRUCTURE
     1 ZINC000004313955        1 TEMP              0 ****  ****    0 ROOT


##########                                Name:    ZINC000623695407
##########                DOCK_Rotatable_Bonds:                  10
##########                         Heavy_Atoms:                  27
##########                    Molecular_Weight:             368.479
##########                DOCK_Rotatable_Bonds:                  10
##########                       Formal_Charge:           0.0299989
##########                     HBond_Acceptors:                   6
##########                        HBond_Donors:                   2
##########                         Heavy_Atoms:                  27
##########                          Grid_Score:          -32.922867
##########                     Grid_vdw_energy:          -32.258121
##########                      Grid_es_energy:           -0.664746
##########           Internal_energy_repulsive:           12.189226

@<TRIPOS>MOLECULE
ZINC000623695407
 55 57 1 0 0
SMALL
USER_CHARGES


@<TRIPOS>ATOM
      1 C1         -0.7037    3.1929   48.3690 C.3     1  ZINC000623695407    0.0300
      2 O2         -1.2958    3.4520   49.6435 O.3     1  ZINC000623695407   -0.3200
      3 C3         -2.5450    2.9602   49.8549 C.ar    1  ZINC000623695407    0.1300
      4 C4         -3.6163    3.8280   50.0096 C.ar    1  ZINC000623695407   -0.2100
      5 C5         -4.8852    3.3256   50.2238 C.ar    1  ZINC000623695407   -0.0600
      6 C6         -5.0879    1.9592   50.2846 C.ar    1  ZINC000623695407   -0.1100
      7 C7         -6.4731    1.4138   50.5190 C.3     1  ZINC000623695407    0.0600
      8 N8         -6.5442    0.8181   51.8599 N.3     1  ZINC000623695407   -0.4600
      9 C9         -6.3146    1.8353   52.9029 C.3     1  ZINC000623695407    0.0000
     10 C10        -7.4457    1.1827   53.7100 C.3     1  ZINC000623695407   -0.1300
     11 C11        -7.9405    0.7347   52.3277 C.3     1  ZINC000623695407    0.0100
     12 H12        -8.6028    1.4559   51.8487 H       1  ZINC000623695407    0.0900
     13 C13        -8.5052   -0.6872   52.3138 C.3     1  ZINC000623695407    0.1600
     14 N14        -9.9216   -0.6538   52.6865 N.am    1  ZINC000623695407   -0.7400
     15 C15       -10.3153   -1.1350   53.8823 C.2     1  ZINC000623695407    0.7100
     16 O16        -9.4951   -1.5980   54.6512 O.2     1  ZINC000623695407   -0.5900
     17 N17       -11.6182   -1.1027   54.2258 N.am    1  ZINC000623695407   -0.7400
     18 C18       -12.0463   -1.6274   55.5250 C.3     1  ZINC000623695407    0.1700
     19 H19       -11.5039   -2.5476   55.7419 H       1  ZINC000623695407    0.0900
     20 C20       -11.7530   -0.5936   56.6142 C.3     1  ZINC000623695407   -0.1600
     21 C21       -13.5481   -1.9172   55.4881 C.3     1  ZINC000623695407   -0.0900
     22 C22       -13.9522   -2.6361   56.7494 C.ar    1  ZINC000623695407   -0.0300
     23 C23       -13.8977   -4.0193   56.8264 C.ar    1  ZINC000623695407   -0.1700
     24 C24       -14.2762   -4.6439   57.9998 C.ar    1  ZINC000623695407    0.1000
     25 N25       -14.6856   -3.9399   59.0369 N.ar    1  ZINC000623695407   -0.4900
     26 C26       -14.7502   -2.6233   58.9995 C.ar    1  ZINC000623695407    0.1000
     27 C27       -14.3820   -1.9296   57.8624 C.ar    1  ZINC000623695407   -0.1700
     28 C28        -4.0218    1.0923   50.1303 C.ar    1  ZINC000623695407   -0.0700
     29 C29        -2.7518    1.5895   49.9106 C.ar    1  ZINC000623695407   -0.1500
     30 H30         0.2901    3.6393   48.3325 H       1  ZINC000623695407    0.1000
     31 H31        -0.6242    2.1164   48.2173 H       1  ZINC000623695407    0.0600
     32 H32        -1.3253    3.6254   47.5849 H       1  ZINC000623695407    0.0600
     33 H33        -3.4584    4.8953   49.9629 H       1  ZINC000623695407    0.1300
     34 H34        -5.7196    4.0007   50.3443 H       1  ZINC000623695407    0.1200
     35 H35        -7.1998    2.2225   50.4416 H       1  ZINC000623695407    0.0600
     36 H36        -6.6953    0.6527   49.7711 H       1  ZINC000623695407    0.0700
     37 H37        -5.3380    1.7547   53.3804 H       1  ZINC000623695407    0.0900
     38 H38        -6.5429    2.8502   52.5774 H       1  ZINC000623695407    0.0700
     39 H39        -7.1204    0.3658   54.3542 H       1  ZINC000623695407    0.1000
     40 H40        -8.1035    1.8929   54.2110 H       1  ZINC000623695407    0.0800
     41 H41        -8.4024   -1.1093   51.3141 H       1  ZINC000623695407    0.0700
     42 H42        -7.9564   -1.3030   53.0264 H       1  ZINC000623695407    0.0700
     43 H43       -10.5761   -0.2854   52.0727 H       1  ZINC000623695407    0.3900
     44 H44       -12.2723   -0.7321   53.6129 H       1  ZINC000623695407    0.3900
     45 H45       -12.0716   -0.9841   57.5808 H       1  ZINC000623695407    0.0700
     46 H46       -10.6831   -0.3872   56.6405 H       1  ZINC000623695407    0.0700
     47 H47       -12.2954    0.3266   56.3973 H       1  ZINC000623695407    0.0600
     48 H48       -14.0975   -0.9788   55.4128 H       1  ZINC000623695407    0.1000
     49 H49       -13.7765   -2.5421   54.6246 H       1  ZINC000623695407    0.0800
     50 H50       -13.5640   -4.6014   55.9802 H       1  ZINC000623695407    0.1300
     51 H51       -14.2366   -5.7211   58.0679 H       1  ZINC000623695407    0.1500
     52 H52       -15.0910   -2.0807   59.8689 H       1  ZINC000623695407    0.1600
     53 H53       -14.4367   -0.8512   57.8378 H       1  ZINC000623695407    0.1400
     54 H54        -4.1828    0.0254   50.1779 H       1  ZINC000623695407    0.1200
     55 H55        -1.9195    0.9120   49.7901 H       1  ZINC000623695407    0.1300
@<TRIPOS>BOND
     1     1     2    1
     2     1    30    1
     3     1    31    1
     4     1    32    1
     5     2     3    1
     6     3    29   ar
     7     3     4   ar
     8     4     5   ar
     9     4    33    1
    10     5     6   ar
    11     5    34    1
    12     6     7    1
    13     6    28   ar
    14     7     8    1
    15     7    35    1
    16     7    36    1
    17     8    11    1
    18     8     9    1
    19     9    10    1
    20     9    37    1
    21     9    38    1
    22    10    11    1
    23    10    39    1
    24    10    40    1
    25    11    12    1
    26    11    13    1
    27    13    14    1
    28    13    41    1
    29    13    42    1
    30    14    15   am
    31    14    43    1
    32    15    16    2
    33    15    17   am
    34    17    18    1
    35    17    44    1
    36    18    19    1
    37    18    20    1
    38    18    21    1
    39    20    45    1
    40    20    46    1
    41    20    47    1
    42    21    22    1
    43    21    48    1
    44    21    49    1
    45    22    27   ar
    46    22    23   ar
    47    23    24   ar
    48    23    50    1
    49    24    25   ar
    50    24    51    1
    51    25    26   ar
    52    26    27   ar
    53    26    52    1
    54    27    53    1
    55    28    29   ar
    56    28    54    1
    57    29    55    1
@<TRIPOS>SUBSTRUCTURE
     1 ZINC000623695407        1 TEMP              0 ****  ****    0 ROOT


##########                                Name:    ZINC000564088286
##########                DOCK_Rotatable_Bonds:                   6
##########                         Heavy_Atoms:                  25
##########                    Molecular_Weight:             398.934
##########                DOCK_Rotatable_Bonds:                   6
##########                       Formal_Charge:               -0.05
##########                     HBond_Acceptors:                   8
##########                        HBond_Donors:                   1
##########                         Heavy_Atoms:                  25
##########                          Grid_Score:          -32.921753
##########                     Grid_vdw_energy:          -31.887424
##########                      Grid_es_energy:           -1.034330
##########           Internal_energy_repulsive:           12.741225

@<TRIPOS>MOLECULE
ZINC000564088286
 44 46 1 0 0
SMALL
USER_CHARGES


@<TRIPOS>ATOM
      1 C1        -12.9566    0.5381   51.3838 C.3     1  ZINC000564088286   -0.1600
      2 C2        -12.1376    0.9265   52.6165 C.3     1  ZINC000564088286    0.1100
      3 N3        -11.5330   -0.2739   53.1991 N.am    1  ZINC000564088286   -1.1200
      4 S4        -10.0876   -0.1675   54.0002 S.o2    1  ZINC000564088286    2.7000
      5 O5        -10.2494    0.8417   54.9875 O.2     1  ZINC000564088286   -0.9600
      6 O6         -9.6996   -1.4996   54.3068 O.2     1  ZINC000564088286   -0.9600
      7 C7         -8.8992    0.4452   52.8527 C.ar    1  ZINC000564088286   -0.6800
      8 C8         -8.8491    1.7964   52.5647 C.ar    1  ZINC000564088286   -0.0200
      9 C9         -7.9167    2.2771   51.6645 C.ar    1  ZINC000564088286   -0.1300
     10 C10        -7.0341    1.4068   51.0524 C.ar    1  ZINC000564088286   -0.0100
     11 C11        -6.0181    1.9308   50.0706 C.3     1  ZINC000564088286   -0.1100
     12 C12        -4.6468    1.8841   50.6937 C.2     1  ZINC000564088286    0.5200
     13 O13        -4.5228    1.5980   51.8658 O.2     1  ZINC000564088286   -0.5200
     14 N14        -3.5582    2.1600   49.9486 N.am    1  ZINC000564088286   -0.6200
     15 C15        -2.2109    2.1200   50.5369 C.3     1  ZINC000564088286    0.1200
     16 C16        -1.4193    0.9924   49.8675 C.3     1  ZINC000564088286   -0.0700
     17 C17        -1.6283    1.0626   48.3696 C.2     1  ZINC000564088286   -0.1600
     18 C18        -2.6298    1.7222   47.7581 C.2     1  ZINC000564088286   -0.1200
     19 C19        -2.6028    1.6232   46.3701 C.2     1  ZINC000564088286   -0.1100
     20 C20        -1.6017    0.9082   45.8638 C.2     1  ZINC000564088286   -0.1500
     21 Cl21       -1.3281    0.6262   44.1729 Cl      1  ZINC000564088286   -0.0100
     22 S22        -0.5984    0.2934   47.1688 S.3     1  ZINC000564088286    0.1600
     23 C23        -3.6857    2.5026   48.5251 C.3     1  ZINC000564088286    0.1700
     24 C24        -7.0834    0.0559   51.3414 C.ar    1  ZINC000564088286   -0.1300
     25 C25        -8.0132   -0.4243   52.2446 C.ar    1  ZINC000564088286   -0.0200
     26 H26       -12.3049    0.0661   50.6485 H       1  ZINC000564088286    0.0600
     27 H27       -13.7418   -0.1597   51.6744 H       1  ZINC000564088286    0.0600
     28 H28       -13.4065    1.4313   50.9502 H       1  ZINC000564088286    0.0700
     29 H29       -11.3524    1.6244   52.3258 H       1  ZINC000564088286    0.0800
     30 H30       -12.7893    1.3986   53.3516 H       1  ZINC000564088286    0.0700
     31 H31       -11.9793   -1.1311   53.1158 H       1  ZINC000564088286    0.4200
     32 H32        -9.5386    2.4763   53.0429 H       1  ZINC000564088286    0.1400
     33 H33        -7.8781    3.3326   51.4390 H       1  ZINC000564088286    0.1300
     34 H34        -6.0299    1.3145   49.1717 H       1  ZINC000564088286    0.1100
     35 H35        -6.2632    2.9601   49.8087 H       1  ZINC000564088286    0.1100
     36 H36        -1.7083    3.0719   50.3654 H       1  ZINC000564088286    0.0800
     37 H37        -2.2847    1.9298   51.6077 H       1  ZINC000564088286    0.1100
     38 H38        -0.3591    1.1074   50.0934 H       1  ZINC000564088286    0.0900
     39 H39        -1.7702    0.0298   50.2397 H       1  ZINC000564088286    0.0900
     40 H40        -3.3461    2.0957   45.7450 H       1  ZINC000564088286    0.1500
     41 H41        -4.6785    2.2323   48.1653 H       1  ZINC000564088286    0.1000
     42 H42        -3.5229    3.5723   48.3928 H       1  ZINC000564088286    0.0900
     43 H43        -6.3936   -0.6239   50.8635 H       1  ZINC000564088286    0.1300
     44 H44        -8.0517   -1.4797   52.4704 H       1  ZINC000564088286    0.1400
@<TRIPOS>BOND
     1     1     2    1
     2     1    26    1
     3     1    27    1
     4     1    28    1
     5     2     3    1
     6     2    29    1
     7     2    30    1
     8     3     4   am
     9     3    31    1
    10     4     5    2
    11     4     6    2
    12     4     7    1
    13     7    25   ar
    14     7     8   ar
    15     8     9   ar
    16     8    32    1
    17     9    10   ar
    18     9    33    1
    19    10    11    1
    20    10    24   ar
    21    11    12    1
    22    11    34    1
    23    11    35    1
    24    12    13    2
    25    12    14   am
    26    14    23    1
    27    14    15    1
    28    15    16    1
    29    15    36    1
    30    15    37    1
    31    16    17    1
    32    16    38    1
    33    16    39    1
    34    17    22    1
    35    17    18    2
    36    18    19    1
    37    18    23    1
    38    19    20    2
    39    19    40    1
    40    20    21    1
    41    20    22    1
    42    23    41    1
    43    23    42    1
    44    24    25   ar
    45    24    43    1
    46    25    44    1
@<TRIPOS>SUBSTRUCTURE
     1 ZINC000564088286        1 TEMP              0 ****  ****    0 ROOT


##########                                Name:    ZINC000433961694
##########                DOCK_Rotatable_Bonds:                   7
##########                         Heavy_Atoms:                  29
##########                    Molecular_Weight:             413.472
##########                DOCK_Rotatable_Bonds:                   7
##########                       Formal_Charge:          0.00999992
##########                     HBond_Acceptors:                   8
##########                        HBond_Donors:                   0
##########                         Heavy_Atoms:                  29
##########                          Grid_Score:          -32.920921
##########                     Grid_vdw_energy:          -32.365932
##########                      Grid_es_energy:           -0.554988
##########           Internal_energy_repulsive:           14.233649

@<TRIPOS>MOLECULE
ZINC000433961694
 49 52 1 0 0
SMALL
USER_CHARGES


@<TRIPOS>ATOM
      1 C1        -11.6351   -3.7776   57.6709 C.3     1  ZINC000433961694   -0.1000
      2 C2        -10.7600   -2.6322   58.1105 C.2     1  ZINC000433961694    0.1600
      3 C3        -10.5682   -1.5201   57.3576 C.2     1  ZINC000433961694   -0.3000
      4 C4        -11.1567   -1.2555   56.0403 C.2     1  ZINC000433961694    0.6200
      5 O5        -12.3602   -1.3424   55.8830 O.2     1  ZINC000433961694   -0.5100
      6 N6        -10.3644   -0.9162   55.0042 N.am    1  ZINC000433961694   -0.6100
      7 C7        -10.8207   -0.6244   53.6330 C.3     1  ZINC000433961694    0.1100
      8 C8         -9.7137    0.2755   53.0295 C.3     1  ZINC000433961694   -0.1300
      9 C9         -8.4341   -0.3485   53.6467 C.3     1  ZINC000433961694    0.0800
     10 H10        -8.1103   -1.2145   53.0693 H       1  ZINC000433961694    0.1000
     11 O11        -7.3880    0.6214   53.7297 O.3     1  ZINC000433961694   -0.2900
     12 C12        -6.7957    0.9901   52.5654 C.ar    1  ZINC000433961694    0.1700
     13 C13        -5.9725    2.1119   52.5070 C.ar    1  ZINC000433961694   -0.2600
     14 C14        -5.3888    2.4537   51.3045 C.ar    1  ZINC000433961694    0.1400
     15 N15        -5.6024    1.7328   50.2201 N.ar    1  ZINC000433961694   -0.5100
     16 C16        -6.3756    0.6635   50.2355 C.ar    1  ZINC000433961694    0.1400
     17 C17        -6.9910    0.2529   51.4002 C.ar    1  ZINC000433961694   -0.2000
     18 C18        -8.9023   -0.7693   55.0556 C.3     1  ZINC000433961694    0.0600
     19 S19        -9.4859   -0.4503   58.2460 S.3     1  ZINC000433961694    0.2100
     20 C20        -9.3981   -1.5839   59.5225 C.2     1  ZINC000433961694    0.0400
     21 C21        -8.5948   -1.3982   60.7840 C.3     1  ZINC000433961694    0.1400
     22 O22        -9.4661   -1.0226   61.8526 O.3     1  ZINC000433961694   -0.3000
     23 C23        -9.0517   -0.0103   62.6600 C.ar    1  ZINC000433961694    0.1200
     24 C24        -9.5394    1.2740   62.4689 C.ar    1  ZINC000433961694   -0.1800
     25 C25        -9.1175    2.3017   63.2900 C.ar    1  ZINC000433961694   -0.1100
     26 C26        -8.2078    2.0503   64.3030 C.ar    1  ZINC000433961694    0.0600
     27 F27        -7.7957    3.0563   65.1051 F       1  ZINC000433961694   -0.1400
     28 C28        -7.7205    0.7686   64.4952 C.ar    1  ZINC000433961694   -0.1100
     29 C29        -8.1452   -0.2620   63.6791 C.ar    1  ZINC000433961694   -0.1200
     30 N30       -10.1235   -2.6218   59.2548 N.2     1  ZINC000433961694   -0.4500
     31 H31       -12.6561   -3.6065   58.0119 H       1  ZINC000433961694    0.0800
     32 H32       -11.6223   -3.8480   56.5832 H       1  ZINC000433961694    0.1000
     33 H33       -11.2598   -4.7069   58.0995 H       1  ZINC000433961694    0.0800
     34 H34       -10.9141   -1.5469   53.0599 H       1  ZINC000433961694    0.0800
     35 H35       -11.7719   -0.0926   53.6549 H       1  ZINC000433961694    0.1000
     36 H36        -9.6993    0.2011   51.9422 H       1  ZINC000433961694    0.1000
     37 H37        -9.8356    1.3110   53.3471 H       1  ZINC000433961694    0.1000
     38 H38        -5.7939    2.7064   53.3908 H       1  ZINC000433961694    0.1400
     39 H39        -4.7493    3.3223   51.2500 H       1  ZINC000433961694    0.1600
     40 H40        -6.5251    0.1003   49.3262 H       1  ZINC000433961694    0.1700
     41 H41        -7.6223   -0.6234   51.4061 H       1  ZINC000433961694    0.1400
     42 H42        -8.6271   -0.0043   55.7817 H       1  ZINC000433961694    0.0900
     43 H43        -8.4485   -1.7222   55.3278 H       1  ZINC000433961694    0.0800
     44 H44        -8.0927   -2.3324   61.0359 H       1  ZINC000433961694    0.0900
     45 H45        -7.8512   -0.6164   60.6295 H       1  ZINC000433961694    0.1000
     46 H46       -10.2484    1.4706   61.6783 H       1  ZINC000433961694    0.1400
     47 H47        -9.4970    3.3019   63.1414 H       1  ZINC000433961694    0.1400
     48 H48        -7.0113    0.5738   65.2860 H       1  ZINC000433961694    0.1500
     49 H49        -7.7650   -1.2617   63.8293 H       1  ZINC000433961694    0.1400
@<TRIPOS>BOND
     1     1     2    1
     2     1    31    1
     3     1    32    1
     4     1    33    1
     5     2    30    1
     6     2     3    2
     7     3     4    1
     8     3    19    1
     9     4     5    2
    10     4     6   am
    11     6    18    1
    12     6     7    1
    13     7     8    1
    14     7    34    1
    15     7    35    1
    16     8     9    1
    17     8    36    1
    18     8    37    1
    19     9    10    1
    20     9    11    1
    21     9    18    1
    22    11    12    1
    23    12    17   ar
    24    12    13   ar
    25    13    14   ar
    26    13    38    1
    27    14    15   ar
    28    14    39    1
    29    15    16   ar
    30    16    17   ar
    31    16    40    1
    32    17    41    1
    33    18    42    1
    34    18    43    1
    35    19    20    1
    36    20    21    1
    37    20    30    2
    38    21    22    1
    39    21    44    1
    40    21    45    1
    41    22    23    1
    42    23    29   ar
    43    23    24   ar
    44    24    25   ar
    45    24    46    1
    46    25    26   ar
    47    25    47    1
    48    26    27    1
    49    26    28   ar
    50    28    29   ar
    51    28    48    1
    52    29    49    1
@<TRIPOS>SUBSTRUCTURE
     1 ZINC000433961694        1 TEMP              0 ****  ****    0 ROOT


##########                                Name:    ZINC000914736341
##########                DOCK_Rotatable_Bonds:                   7
##########                         Heavy_Atoms:                  27
##########                    Molecular_Weight:             384.905
##########                DOCK_Rotatable_Bonds:                   7
##########                       Formal_Charge:                0.02
##########                     HBond_Acceptors:                   5
##########                        HBond_Donors:                   1
##########                         Heavy_Atoms:                  27
##########                          Grid_Score:          -32.897472
##########                     Grid_vdw_energy:          -32.956886
##########                      Grid_es_energy:            0.059414
##########           Internal_energy_repulsive:           25.411173

@<TRIPOS>MOLECULE
ZINC000914736341
 52 54 1 0 0
SMALL
USER_CHARGES


@<TRIPOS>ATOM
      1 C1         -6.3780    1.0864   54.1062 C.3     1  ZINC000914736341   -0.1400
      2 C2         -7.3547    0.8812   52.9464 C.3     1  ZINC000914736341   -0.0300
      3 C3         -7.5513   -0.6166   52.7041 C.3     1  ZINC000914736341   -0.1400
      4 C4         -8.6997    1.5227   53.2930 C.3     1  ZINC000914736341    0.1300
      5 N5         -9.1188    1.0877   54.6276 N.am    1  ZINC000914736341   -0.7200
      6 C6        -10.0817    0.1541   54.7607 C.2     1  ZINC000914736341    0.5300
      7 O7        -10.6022   -0.3249   53.7756 O.2     1  ZINC000914736341   -0.5300
      8 C8        -10.5115   -0.2947   56.1336 C.3     1  ZINC000914736341   -0.1200
      9 H9        -11.3951    0.2526   56.4619 H       1  ZINC000914736341    0.1200
     10 C10        -9.3574   -0.1441   57.1516 C.3     1  ZINC000914736341   -0.1400
     11 C11        -9.5030   -1.3467   58.0579 C.2     1  ZINC000914736341    0.5200
     12 O12        -8.9789   -1.4643   59.1454 O.2     1  ZINC000914736341   -0.5200
     13 N13       -10.2979   -2.2655   57.4829 N.am    1  ZINC000914736341   -0.6100
     14 C14       -10.6555   -3.5478   58.0943 C.3     1  ZINC000914736341    0.1600
     15 C15       -11.9819   -3.4165   58.7975 C.ar    1  ZINC000914736341   -0.1000
     16 C16       -12.0634   -2.7363   59.9977 C.ar    1  ZINC000914736341   -0.0800
     17 C17       -13.2802   -2.6158   60.6430 C.ar    1  ZINC000914736341   -0.1100
     18 C18       -14.4157   -3.1758   60.0886 C.ar    1  ZINC000914736341   -0.1000
     19 C19       -14.3354   -3.8564   58.8880 C.ar    1  ZINC000914736341   -0.1100
     20 C20       -13.1194   -3.9721   58.2388 C.ar    1  ZINC000914736341   -0.0300
     21 Cl21      -13.0178   -4.8267   56.7311 Cl      1  ZINC000914736341   -0.0600
     22 C22       -10.7625   -1.8187   56.1637 C.3     1  ZINC000914736341    0.1000
     23 C23        -6.7981    1.5227   51.7015 C.ar    1  ZINC000914736341   -0.0700
     24 C24        -7.6342    2.2220   50.8514 C.ar    1  ZINC000914736341   -0.1200
     25 C25        -7.1236    2.8104   49.7094 C.ar    1  ZINC000914736341   -0.1200
     26 C26        -5.7769    2.6998   49.4179 C.ar    1  ZINC000914736341   -0.1200
     27 C27        -4.9407    2.0013   50.2686 C.ar    1  ZINC000914736341   -0.1200
     28 C28        -5.4504    1.4165   51.4127 C.ar    1  ZINC000914736341   -0.1100
     29 H29        -5.4197    0.6294   53.8594 H       1  ZINC000914736341    0.0600
     30 H30        -6.2380    2.1534   54.2788 H       1  ZINC000914736341    0.0600
     31 H31        -6.7806    0.6225   55.0066 H       1  ZINC000914736341    0.0600
     32 H32        -7.9539   -1.0805   53.6046 H       1  ZINC000914736341    0.0600
     33 H33        -8.2472   -0.7628   51.8780 H       1  ZINC000914736341    0.0600
     34 H34        -6.5930   -1.0736   52.4573 H       1  ZINC000914736341    0.0600
     35 H35        -8.5990    2.6080   53.2795 H       1  ZINC000914736341    0.0700
     36 H36        -9.4470    1.2181   52.5603 H       1  ZINC000914736341    0.0700
     37 H37        -8.7033    1.4717   55.4156 H       1  ZINC000914736341    0.4000
     38 H38        -8.3941   -0.1649   56.6420 H       1  ZINC000914736341    0.1100
     39 H39        -9.4691    0.7786   57.7211 H       1  ZINC000914736341    0.1100
     40 H40       -10.7289   -4.3116   57.3199 H       1  ZINC000914736341    0.1000
     41 H41        -9.8890   -3.8333   58.8147 H       1  ZINC000914736341    0.1000
     42 H42       -11.1765   -2.2992   60.4318 H       1  ZINC000914736341    0.1400
     43 H43       -13.3435   -2.0841   61.5809 H       1  ZINC000914736341    0.1300
     44 H44       -15.3658   -3.0820   60.5934 H       1  ZINC000914736341    0.1300
     45 H45       -15.2227   -4.2940   58.4548 H       1  ZINC000914736341    0.1400
     46 H46       -11.8256   -2.0293   56.0470 H       1  ZINC000914736341    0.1000
     47 H47       -10.1911   -2.3101   55.3762 H       1  ZINC000914736341    0.0900
     48 H48        -8.6863    2.3084   51.0792 H       1  ZINC000914736341    0.1300
     49 H49        -7.7770    3.3562   49.0449 H       1  ZINC000914736341    0.1200
     50 H50        -5.3781    3.1590   48.5253 H       1  ZINC000914736341    0.1200
     51 H51        -3.8886    1.9146   50.0406 H       1  ZINC000914736341    0.1200
     52 H52        -4.7970    0.8708   52.0773 H       1  ZINC000914736341    0.1200
@<TRIPOS>BOND
     1     1     2    1
     2     1    29    1
     3     1    30    1
     4     1    31    1
     5     2     3    1
     6     2     4    1
     7     2    23    1
     8     3    32    1
     9     3    33    1
    10     3    34    1
    11     4     5    1
    12     4    35    1
    13     4    36    1
    14     5     6   am
    15     5    37    1
    16     6     7    2
    17     6     8    1
    18     8     9    1
    19     8    22    1
    20     8    10    1
    21    10    11    1
    22    10    38    1
    23    10    39    1
    24    11    12    2
    25    11    13   am
    26    13    14    1
    27    13    22    1
    28    14    15    1
    29    14    40    1
    30    14    41    1
    31    15    20   ar
    32    15    16   ar
    33    16    17   ar
    34    16    42    1
    35    17    18   ar
    36    17    43    1
    37    18    19   ar
    38    18    44    1
    39    19    20   ar
    40    19    45    1
    41    20    21    1
    42    22    46    1
    43    22    47    1
    44    23    28   ar
    45    23    24   ar
    46    24    25   ar
    47    24    48    1
    48    25    26   ar
    49    25    49    1
    50    26    27   ar
    51    26    50    1
    52    27    28   ar
    53    27    51    1
    54    28    52    1
@<TRIPOS>SUBSTRUCTURE
     1 ZINC000914736341        1 TEMP              0 ****  ****    0 ROOT


##########                                Name:    ZINC000788423111
##########                DOCK_Rotatable_Bonds:                   7
##########                         Heavy_Atoms:                  23
##########                    Molecular_Weight:             399.243
##########                DOCK_Rotatable_Bonds:                   7
##########                       Formal_Charge:         1.04308e-07
##########                     HBond_Acceptors:                   8
##########                        HBond_Donors:                   1
##########                         Heavy_Atoms:                  23
##########                          Grid_Score:          -32.861504
##########                     Grid_vdw_energy:          -30.879169
##########                      Grid_es_energy:           -1.982334
##########           Internal_energy_repulsive:            6.810691

@<TRIPOS>MOLECULE
ZINC000788423111
 35 37 1 0 0
SMALL
USER_CHARGES


@<TRIPOS>ATOM
      1 O1         -7.8132   -1.6584   59.9395 O.3     1  ZINC000788423111   -0.5400
      2 C2         -8.9838   -1.0105   60.4416 C.3     1  ZINC000788423111    0.1000
      3 H3         -9.1394   -1.2965   61.4818 H       1  ZINC000788423111    0.1300
      4 C4        -10.1966   -1.4324   59.6098 C.3     1  ZINC000788423111    0.0300
      5 O5        -10.7035   -2.6744   60.1025 O.3     1  ZINC000788423111   -0.2900
      6 C6        -11.9495   -3.0360   59.6985 C.ar    1  ZINC000788423111    0.1700
      7 C7        -13.0641   -2.5474   60.3634 C.ar    1  ZINC000788423111   -0.2400
      8 C8        -14.3321   -2.9171   59.9503 C.ar    1  ZINC000788423111    0.1500
      9 F9        -15.4186   -2.4418   60.5973 F       1  ZINC000788423111   -0.1300
     10 C10       -14.4874   -3.7737   58.8736 C.ar    1  ZINC000788423111   -0.1600
     11 C11       -13.3760   -4.2619   58.2101 C.ar    1  ZINC000788423111   -0.0300
     12 Br12      -13.5916   -5.4316   56.7400 Br      1  ZINC000788423111   -0.0200
     13 C13       -12.1082   -3.8902   58.6165 C.ar    1  ZINC000788423111   -0.1300
     14 C14        -8.8058    0.5064   60.3509 C.3     1  ZINC000788423111    0.1000
     15 N15        -8.1652    0.8477   59.0784 N.pl3   1  ZINC000788423111   -0.1300
     16 N16        -7.1969    1.6834   58.9333 N.2     1  ZINC000788423111   -0.0500
     17 N17        -6.8775    1.7432   57.6851 N.2     1  ZINC000788423111   -0.2600
     18 C18        -7.6892    0.9021   57.0258 C.2     1  ZINC000788423111    0.2400
     19 C19        -7.6935    0.6364   55.5707 C.2     1  ZINC000788423111   -0.1300
     20 C20        -8.5449   -0.1908   54.9334 C.2     1  ZINC000788423111   -0.0800
     21 C21        -8.3536   -0.2765   53.5695 C.2     1  ZINC000788423111   -0.1400
     22 C22        -7.3561    0.4716   53.0899 C.2     1  ZINC000788423111   -0.2000
     23 S23        -6.5926    1.3572   54.4035 S.3     1  ZINC000788423111    0.1700
     24 N24        -8.4792    0.3541   57.9301 N.2     1  ZINC000788423111   -0.2900
     25 H25        -7.1212   -1.7892   60.6021 H       1  ZINC000788423111    0.3800
     26 H26       -10.9711   -0.6690   59.6836 H       1  ZINC000788423111    0.0900
     27 H27        -9.8996   -1.5491   58.5676 H       1  ZINC000788423111    0.0800
     28 H28       -12.9426   -1.8792   61.2032 H       1  ZINC000788423111    0.1500
     29 H29       -15.4774   -4.0614   58.5517 H       1  ZINC000788423111    0.1500
     30 H30       -11.2412   -4.2714   58.0978 H       1  ZINC000788423111    0.1500
     31 H31        -9.7807    0.9907   60.4082 H       1  ZINC000788423111    0.1300
     32 H32        -8.1810    0.8489   61.1757 H       1  ZINC000788423111    0.1300
     33 H33        -9.3160   -0.7434   55.4493 H       1  ZINC000788423111    0.1500
     34 H34        -8.9651   -0.9025   52.9366 H       1  ZINC000788423111    0.1500
     35 H35        -7.0654    0.5276   52.0513 H       1  ZINC000788423111    0.1700
@<TRIPOS>BOND
     1     1     2    1
     2     1    25    1
     3     2     3    1
     4     2     4    1
     5     2    14    1
     6     4     5    1
     7     4    26    1
     8     4    27    1
     9     5     6    1
    10     6    13   ar
    11     6     7   ar
    12     7     8   ar
    13     7    28    1
    14     8     9    1
    15     8    10   ar
    16    10    11   ar
    17    10    29    1
    18    11    12    1
    19    11    13   ar
    20    13    30    1
    21    14    15    1
    22    14    31    1
    23    14    32    1
    24    15    24    1
    25    15    16    1
    26    16    17    2
    27    17    18    1
    28    18    19    1
    29    18    24    2
    30    19    23    1
    31    19    20    2
    32    20    21    1
    33    20    33    1
    34    21    22    2
    35    21    34    1
    36    22    23    1
    37    22    35    1
@<TRIPOS>SUBSTRUCTURE
     1 ZINC000788423111        1 TEMP              0 ****  ****    0 ROOT


##########                                Name:    ZINC000461678839
##########                DOCK_Rotatable_Bonds:                   6
##########                         Heavy_Atoms:                  28
##########                    Molecular_Weight:             404.939
##########                DOCK_Rotatable_Bonds:                   6
##########                       Formal_Charge:          -0.0200003
##########                     HBond_Acceptors:                   7
##########                        HBond_Donors:                   0
##########                         Heavy_Atoms:                  28
##########                          Grid_Score:          -32.858818
##########                     Grid_vdw_energy:          -32.115902
##########                      Grid_es_energy:           -0.742918
##########           Internal_energy_repulsive:           12.039373

@<TRIPOS>MOLECULE
ZINC000461678839
 57 60 1 0 0
SMALL
USER_CHARGES


@<TRIPOS>ATOM
      1 C1         -2.5739    2.6912   49.5376 C.3     1  ZINC000461678839   -0.1500
      2 C2         -4.0316    2.2266   49.5446 C.3     1  ZINC000461678839   -0.0900
      3 H3         -4.2721    1.7963   48.5724 H       1  ZINC000461678839    0.0700
      4 C4         -4.9478    3.4450   49.7971 C.3     1  ZINC000461678839   -0.1100
      5 C5         -6.3504    3.0945   49.3775 C.3     1  ZINC000461678839   -0.1200
      6 C6         -7.1947    2.5190   50.5286 C.3     1  ZINC000461678839    0.0600
      7 N7         -6.4562    1.5523   51.3705 N.3     1  ZINC000461678839   -0.4600
      8 C8         -7.3181    0.8654   52.2107 C.2     1  ZINC000461678839    0.3700
      9 N9         -8.2512    0.0176   51.8467 N.2     1  ZINC000461678839   -0.3100
     10 N10        -8.8607   -0.4329   52.8848 N.2     1  ZINC000461678839   -0.2500
     11 C11        -8.3569    0.0963   53.9635 C.2     1  ZINC000461678839    0.1700
     12 C12        -8.7951   -0.1743   55.3798 C.3     1  ZINC000461678839    0.1500
     13 O13        -9.4036   -1.4652   55.4516 O.3     1  ZINC000461678839   -0.3100
     14 C14        -9.8475   -1.8711   56.6705 C.ar    1  ZINC000461678839    0.1400
     15 C15       -10.5393   -3.0671   56.7947 C.ar    1  ZINC000461678839   -0.2000
     16 C16       -10.9898   -3.4780   58.0344 C.ar    1  ZINC000461678839   -0.0700
     17 C17       -10.7518   -2.6972   59.1516 C.ar    1  ZINC000461678839   -0.0700
     18 Cl18      -11.3194   -3.2152   60.7082 Cl      1  ZINC000461678839   -0.0700
     19 C19       -10.0617   -1.5041   59.0298 C.ar    1  ZINC000461678839   -0.0700
     20 C20        -9.6046   -1.0927   57.7928 C.ar    1  ZINC000461678839   -0.1400
     21 N21        -7.3528    0.9383   53.5728 N.pl3   1  ZINC000461678839   -0.4600
     22 C22        -6.4976    1.7558   54.4368 C.3     1  ZINC000461678839    0.1200
     23 C23        -6.8736    3.2303   54.2788 C.3     1  ZINC000461678839   -0.1400
     24 H24        -6.9868    3.4833   53.2245 H       1  ZINC000461678839    0.0900
     25 C25        -5.8070    4.1356   54.9416 C.3     1  ZINC000461678839   -0.1500
     26 C26        -6.6794    5.2244   55.6166 C.3     1  ZINC000461678839    0.0500
     27 O27        -7.8339    4.4917   56.0800 O.3     1  ZINC000461678839   -0.3700
     28 C28        -8.1705    3.5420   55.0505 C.3     1  ZINC000461678839    0.0400
     29 C29        -5.6320    0.6390   50.6162 C.3     1  ZINC000461678839    0.0700
     30 C30        -4.2007    1.2051   50.5721 C.3     1  ZINC000461678839   -0.1100
     31 H31        -1.9221    1.8398   49.3414 H       1  ZINC000461678839    0.0500
     32 H32        -2.4354    3.4417   48.7593 H       1  ZINC000461678839    0.0500
     33 H33        -2.3256    3.1231   50.5072 H       1  ZINC000461678839    0.0600
     34 H34        -4.9361    3.6971   50.8575 H       1  ZINC000461678839    0.0700
     35 H35        -4.5939    4.2951   49.2139 H       1  ZINC000461678839    0.0700
     36 H36        -6.8384    3.9928   48.9992 H       1  ZINC000461678839    0.0800
     37 H37        -6.3032    2.3587   48.5748 H       1  ZINC000461678839    0.0700
     38 H38        -7.5356    3.3415   51.1575 H       1  ZINC000461678839    0.0700
     39 H39        -8.0672    2.0200   50.1067 H       1  ZINC000461678839    0.0500
     40 H40        -7.9287   -0.1437   56.0403 H       1  ZINC000461678839    0.0800
     41 H41        -9.5144    0.5842   55.6886 H       1  ZINC000461678839    0.1000
     42 H42       -10.7259   -3.6766   55.9228 H       1  ZINC000461678839    0.1400
     43 H43       -11.5284   -4.4091   58.1315 H       1  ZINC000461678839    0.1400
     44 H44        -9.8765   -0.8962   59.9030 H       1  ZINC000461678839    0.1400
     45 H45        -9.0659   -0.1614   57.6980 H       1  ZINC000461678839    0.1400
     46 H46        -6.6364    1.4546   55.4752 H       1  ZINC000461678839    0.1100
     47 H47        -5.4545    1.6144   54.1540 H       1  ZINC000461678839    0.1000
     48 H48        -5.2334    3.5811   55.6843 H       1  ZINC000461678839    0.0800
     49 H49        -5.1487    4.5743   54.1918 H       1  ZINC000461678839    0.0900
     50 H50        -6.1492    5.6758   56.4552 H       1  ZINC000461678839    0.1000
     51 H51        -6.9726    5.9847   54.8926 H       1  ZINC000461678839    0.0600
     52 H52        -8.9116    3.9725   54.3771 H       1  ZINC000461678839    0.0500
     53 H53        -8.5616    2.6298   55.5011 H       1  ZINC000461678839    0.1100
     54 H54        -5.6266   -0.3371   51.1012 H       1  ZINC000461678839    0.0900
     55 H55        -6.0217    0.5441   49.6027 H       1  ZINC000461678839    0.0600
     56 H56        -3.5055    0.3894   50.3734 H       1  ZINC000461678839    0.0700
     57 H57        -3.9633    1.6383   51.5438 H       1  ZINC000461678839    0.0700
@<TRIPOS>BOND
     1     1     2    1
     2     1    31    1
     3     1    32    1
     4     1    33    1
     5     2     3    1
     6     2    30    1
     7     2     4    1
     8     4     5    1
     9     4    34    1
    10     4    35    1
    11     5     6    1
    12     5    36    1
    13     5    37    1
    14     6     7    1
    15     6    38    1
    16     6    39    1
    17     7     8    1
    18     7    29    1
    19     8    21    1
    20     8     9    2
    21     9    10    1
    22    10    11    2
    23    11    12    1
    24    11    21    1
    25    12    13    1
    26    12    40    1
    27    12    41    1
    28    13    14    1
    29    14    20   ar
    30    14    15   ar
    31    15    16   ar
    32    15    42    1
    33    16    17   ar
    34    16    43    1
    35    17    18    1
    36    17    19   ar
    37    19    20   ar
    38    19    44    1
    39    20    45    1
    40    21    22    1
    41    22    23    1
    42    22    46    1
    43    22    47    1
    44    23    24    1
    45    23    28    1
    46    23    25    1
    47    25    26    1
    48    25    48    1
    49    25    49    1
    50    26    27    1
    51    26    50    1
    52    26    51    1
    53    27    28    1
    54    28    52    1
    55    28    53    1
    56    29    30    1
    57    29    54    1
    58    29    55    1
    59    30    56    1
    60    30    57    1
@<TRIPOS>SUBSTRUCTURE
     1 ZINC000461678839        1 TEMP              0 ****  ****    0 ROOT


##########                                Name:    ZINC000963156778
##########                DOCK_Rotatable_Bonds:                   6
##########                         Heavy_Atoms:                  24
##########                    Molecular_Weight:             349.414
##########                DOCK_Rotatable_Bonds:                   6
##########                       Formal_Charge:         -0.00999984
##########                     HBond_Acceptors:                   9
##########                        HBond_Donors:                   2
##########                         Heavy_Atoms:                  24
##########                          Grid_Score:          -32.854095
##########                     Grid_vdw_energy:          -32.424019
##########                      Grid_es_energy:           -0.430076
##########           Internal_energy_repulsive:            7.796177

@<TRIPOS>MOLECULE
ZINC000963156778
 43 46 1 0 0
SMALL
USER_CHARGES


@<TRIPOS>ATOM
      1 C1         -6.8736   -1.0149   51.7512 C.3     1  ZINC000963156778   -0.0800
      2 C2         -6.9630    0.1752   52.6714 C.2     1  ZINC000963156778    0.0300
      3 C3         -6.8869    1.4591   52.2503 C.2     1  ZINC000963156778   -0.2600
      4 C4         -6.7059    1.9626   50.8415 C.3     1  ZINC000963156778    0.1300
      5 N5         -5.3334    2.4579   50.6710 N.3     1  ZINC000963156778   -0.5000
      6 C6         -5.2043    3.2491   49.4204 C.3     1  ZINC000963156778    0.0600
      7 C7         -3.6938    3.2304   49.1023 C.3     1  ZINC000963156778   -0.1700
      8 H8         -3.1595    4.1800   49.1328 H       1  ZINC000963156778    0.1200
      9 C9         -3.1515    1.9698   49.8068 C.3     1  ZINC000963156778   -0.1700
     10 H10        -2.2064    1.9773   50.3498 H       1  ZINC000963156778    0.1200
     11 C11        -4.3800    1.3329   50.4912 C.3     1  ZINC000963156778    0.0600
     12 C12        -3.1521    2.0877   48.2411 C.3     1  ZINC000963156778    0.1200
     13 H13        -3.8725    1.4815   47.6920 H       1  ZINC000963156778    0.1400
     14 N14        -1.8609    2.2881   47.5786 N.am    1  ZINC000963156778   -0.7000
     15 C15        -1.7032    1.9323   46.2882 C.2     1  ZINC000963156778    0.5100
     16 O16        -2.6307    1.4475   45.6752 O.2     1  ZINC000963156778   -0.5000
     17 C17        -0.3745    2.1368   45.6072 C.3     1  ZINC000963156778   -0.1300
     18 C18         0.2811    0.7786   45.3500 C.3     1  ZINC000963156778   -0.1100
     19 H19        -0.0008    0.0650   46.1243 H       1  ZINC000963156778    0.1300
     20 C20         1.8150    0.9215   45.2761 C.3     1  ZINC000963156778   -0.1600
     21 C21         2.1463    0.4664   43.8716 C.2     1  ZINC000963156778    0.5300
     22 O22         3.2590    0.4208   43.3924 O.2     1  ZINC000963156778   -0.4800
     23 N23         1.0162    0.1216   43.2422 N.am    1  ZINC000963156778   -0.6900
     24 C24        -0.0963    0.2557   43.9812 C.2     1  ZINC000963156778    0.5200
     25 O25        -1.2215    0.0008   43.6089 O.2     1  ZINC000963156778   -0.4500
     26 S26        -7.0450    2.3852   53.6925 S.3     1  ZINC000963156778    0.4500
     27 N27        -7.1862    1.1595   54.6555 N.2     1  ZINC000963156778   -0.2900
     28 N28        -7.1296    0.0819   53.9749 N.2     1  ZINC000963156778   -0.2400
     29 H29        -7.8714   -1.2792   51.4010 H       1  ZINC000963156778    0.0900
     30 H30        -6.2427   -0.7675   50.8974 H       1  ZINC000963156778    0.0800
     31 H31        -6.4421   -1.8588   52.2895 H       1  ZINC000963156778    0.0800
     32 H32        -6.8888    1.1498   50.1387 H       1  ZINC000963156778    0.1000
     33 H33        -7.4105    2.7723   50.6517 H       1  ZINC000963156778    0.0700
     34 H34        -5.7685    2.7803   48.6140 H       1  ZINC000963156778    0.0600
     35 H35        -5.5465    4.2716   49.5803 H       1  ZINC000963156778    0.0800
     36 H36        -4.1014    0.9126   51.4576 H       1  ZINC000963156778    0.1000
     37 H37        -4.8150    0.5643   49.8526 H       1  ZINC000963156778    0.0500
     38 H38        -1.1196    2.6769   48.0685 H       1  ZINC000963156778    0.4000
     39 H39        -0.5278    2.6517   44.6588 H       1  ZINC000963156778    0.1000
     40 H40         0.2726    2.7375   46.2464 H       1  ZINC000963156778    0.1200
     41 H41         2.1109    1.9603   45.4225 H       1  ZINC000963156778    0.1200
     42 H42         2.2962    0.2771   46.0119 H       1  ZINC000963156778    0.1300
     43 H43         1.0021   -0.2002   42.3273 H       1  ZINC000963156778    0.4200
@<TRIPOS>BOND
     1     1     2    1
     2     1    29    1
     3     1    30    1
     4     1    31    1
     5     2    28    1
     6     2     3    2
     7     3     4    1
     8     3    26    1
     9     4     5    1
    10     4    32    1
    11     4    33    1
    12     5    11    1
    13     5     6    1
    14     6     7    1
    15     6    34    1
    16     6    35    1
    17     7     8    1
    18     7    12    1
    19     7     9    1
    20     9    10    1
    21     9    11    1
    22     9    12    1
    23    11    36    1
    24    11    37    1
    25    12    13    1
    26    12    14    1
    27    14    15   am
    28    14    38    1
    29    15    16    2
    30    15    17    1
    31    17    18    1
    32    17    39    1
    33    17    40    1
    34    18    19    1
    35    18    24    1
    36    18    20    1
    37    20    21    1
    38    20    41    1
    39    20    42    1
    40    21    22    2
    41    21    23   am
    42    23    24   am
    43    23    43    1
    44    24    25    2
    45    26    27    1
    46    27    28    2
@<TRIPOS>SUBSTRUCTURE
     1 ZINC000963156778        1 TEMP              0 ****  ****    0 ROOT


##########                                Name:    ZINC001342153661
##########                DOCK_Rotatable_Bonds:                   8
##########                         Heavy_Atoms:                  29
##########                    Molecular_Weight:             395.548
##########                DOCK_Rotatable_Bonds:                   8
##########                       Formal_Charge:          -0.0400005
##########                     HBond_Acceptors:                   6
##########                        HBond_Donors:                   1
##########                         Heavy_Atoms:                  29
##########                          Grid_Score:          -32.848591
##########                     Grid_vdw_energy:          -28.137804
##########                      Grid_es_energy:           -4.710786
##########           Internal_energy_repulsive:           19.516180

@<TRIPOS>MOLECULE
ZINC001342153661
 62 65 1 0 0
SMALL
USER_CHARGES


@<TRIPOS>ATOM
      1 C1         -1.5017   -0.1609   47.2466 C.2     1  ZINC001342153661   -0.1400
      2 C2         -1.9749    0.8850   47.8778 C.2     1  ZINC001342153661   -0.1600
      3 C3         -2.2293    2.1667   47.1271 C.3     1  ZINC001342153661   -0.1200
      4 C4         -2.2646    0.8065   49.3546 C.3     1  ZINC001342153661    0.1500
      5 N5         -2.1005    2.1322   49.9557 N.pl3   1  ZINC001342153661   -0.4700
      6 C6         -0.9254    2.7840   50.2095 C.2     1  ZINC001342153661    0.1800
      7 C7          0.4614    2.2697   49.9210 C.3     1  ZINC001342153661   -0.0600
      8 C8          0.9101    1.3480   51.0568 C.3     1  ZINC001342153661    0.1600
      9 H9          0.0376    0.8730   51.5054 H       1  ZINC001342153661    0.1000
     10 O10         1.7848    0.3440   50.5380 O.3     1  ZINC001342153661   -0.5400
     11 C11         1.6359    2.1553   52.1020 C.ar    1  ZINC001342153661   -0.1700
     12 C12         3.0146    2.2899   52.0526 C.ar    1  ZINC001342153661   -0.0600
     13 C13         3.6399    3.0425   53.0353 C.ar    1  ZINC001342153661   -0.1700
     14 C14         2.8733    3.6291   54.0240 C.ar    1  ZINC001342153661    0.1000
     15 N15         1.5630    3.4797   54.0395 N.ar    1  ZINC001342153661   -0.4800
     16 C16         0.9345    2.7758   53.1187 C.ar    1  ZINC001342153661    0.1100
     17 N17        -1.2272    3.9322   50.7462 N.2     1  ZINC001342153661   -0.2700
     18 N18        -2.5030    4.0495   50.8481 N.2     1  ZINC001342153661   -0.3200
     19 C19        -3.0887    2.9755   50.3733 C.2     1  ZINC001342153661    0.3600
     20 N20        -4.4529    2.7387   50.3147 N.3     1  ZINC001342153661   -0.4500
     21 C21        -5.1488    3.8367   49.6317 C.3     1  ZINC001342153661    0.0500
     22 C22        -6.6257    3.4758   49.4568 C.3     1  ZINC001342153661   -0.1200
     23 C23        -7.2517    3.2270   50.8319 C.3     1  ZINC001342153661   -0.1200
     24 C24        -6.4783    2.1122   51.5418 C.3     1  ZINC001342153661   -0.0800
     25 H25        -6.5609    1.1894   50.9676 H       1  ZINC001342153661    0.0800
     26 C26        -7.0604    1.8975   52.9403 C.3     1  ZINC001342153661   -0.0800
     27 C27        -8.6077    1.9520   52.8977 C.3     1  ZINC001342153661   -0.1200
     28 C28        -9.0130    1.1470   54.1574 C.3     1  ZINC001342153661   -0.1300
     29 C29        -7.9873   -0.0038   54.2171 C.3     1  ZINC001342153661   -0.1300
     30 C30        -6.7458    0.4735   53.4432 C.3     1  ZINC001342153661   -0.1200
     31 C31        -5.0057    2.5127   51.6562 C.3     1  ZINC001342153661    0.0800
     32 H32        -1.2941   -0.1046   46.1883 H       1  ZINC001342153661    0.1000
     33 H33        -1.3152   -1.0781   47.7855 H       1  ZINC001342153661    0.1100
     34 H34        -3.2185    2.1304   46.6709 H       1  ZINC001342153661    0.0700
     35 H35        -2.1784    3.0085   47.8177 H       1  ZINC001342153661    0.0600
     36 H36        -1.4749    2.2885   46.3498 H       1  ZINC001342153661    0.0700
     37 H37        -3.2879    0.4628   49.5063 H       1  ZINC001342153661    0.1000
     38 H38        -1.5731    0.1067   49.8238 H       1  ZINC001342153661    0.1000
     39 H39         0.4550    1.7141   48.9832 H       1  ZINC001342153661    0.1100
     40 H40         1.1512    3.1099   49.8408 H       1  ZINC001342153661    0.1000
     41 H41         1.3371   -0.3368   50.0174 H       1  ZINC001342153661    0.3800
     42 H42         3.5884    1.8194   51.2678 H       1  ZINC001342153661    0.1300
     43 H43         4.7126    3.1682   53.0282 H       1  ZINC001342153661    0.1400
     44 H44         3.3527    4.2165   54.7931 H       1  ZINC001342153661    0.1600
     45 H45        -0.1399    2.6757   53.1643 H       1  ZINC001342153661    0.1500
     46 H46        -5.0652    4.7459   50.2272 H       1  ZINC001342153661    0.0500
     47 H47        -4.6966    4.0005   48.6535 H       1  ZINC001342153661    0.0700
     48 H48        -7.1452    4.2975   48.9638 H       1  ZINC001342153661    0.0800
     49 H49        -6.7106    2.5744   48.8498 H       1  ZINC001342153661    0.0700
     50 H50        -7.2018    4.1398   51.4254 H       1  ZINC001342153661    0.0600
     51 H51        -8.2925    2.9273   50.7094 H       1  ZINC001342153661    0.0700
     52 H52        -6.6694    2.6420   53.6337 H       1  ZINC001342153661    0.0800
     53 H53        -8.9601    2.9812   52.9672 H       1  ZINC001342153661    0.0700
     54 H54        -8.9865    1.4731   51.9948 H       1  ZINC001342153661    0.0700
     55 H55        -8.9393    1.7703   55.0486 H       1  ZINC001342153661    0.0600
     56 H56       -10.0232    0.7523   54.0492 H       1  ZINC001342153661    0.0600
     57 H57        -7.7230   -0.2149   55.2532 H       1  ZINC001342153661    0.0600
     58 H58        -8.3999   -0.8964   53.7471 H       1  ZINC001342153661    0.0600
     59 H59        -6.5559   -0.1877   52.5977 H       1  ZINC001342153661    0.0600
     60 H60        -5.8791    0.4938   54.1038 H       1  ZINC001342153661    0.0600
     61 H61        -4.4497    1.7149   52.1485 H       1  ZINC001342153661    0.0900
     62 H62        -4.9228    3.4280   52.2422 H       1  ZINC001342153661    0.0500
@<TRIPOS>BOND
     1     1     2    2
     2     1    32    1
     3     1    33    1
     4     2     3    1
     5     2     4    1
     6     3    34    1
     7     3    35    1
     8     3    36    1
     9     4     5    1
    10     4    37    1
    11     4    38    1
    12     5    19    1
    13     5     6    1
    14     6     7    1
    15     6    17    2
    16     7     8    1
    17     7    39    1
    18     7    40    1
    19     8     9    1
    20     8    10    1
    21     8    11    1
    22    10    41    1
    23    11    16   ar
    24    11    12   ar
    25    12    13   ar
    26    12    42    1
    27    13    14   ar
    28    13    43    1
    29    14    15   ar
    30    14    44    1
    31    15    16   ar
    32    16    45    1
    33    17    18    1
    34    18    19    2
    35    19    20    1
    36    20    31    1
    37    20    21    1
    38    21    22    1
    39    21    46    1
    40    21    47    1
    41    22    23    1
    42    22    48    1
    43    22    49    1
    44    23    24    1
    45    23    50    1
    46    23    51    1
    47    24    25    1
    48    24    26    1
    49    24    31    1
    50    26    30    1
    51    26    27    1
    52    26    52    1
    53    27    28    1
    54    27    53    1
    55    27    54    1
    56    28    29    1
    57    28    55    1
    58    28    56    1
    59    29    30    1
    60    29    57    1
    61    29    58    1
    62    30    59    1
    63    30    60    1
    64    31    61    1
    65    31    62    1
@<TRIPOS>SUBSTRUCTURE
     1 ZINC001342153661        1 TEMP              0 ****  ****    0 ROOT


##########                                Name:    ZINC000508571532
##########                DOCK_Rotatable_Bonds:                   9
##########                         Heavy_Atoms:                  30
##########                    Molecular_Weight:             422.407
##########                DOCK_Rotatable_Bonds:                   9
##########                       Formal_Charge:           0.0100001
##########                     HBond_Acceptors:                  10
##########                        HBond_Donors:                   0
##########                         Heavy_Atoms:                  30
##########                          Grid_Score:          -32.846798
##########                     Grid_vdw_energy:          -32.400925
##########                      Grid_es_energy:           -0.445872
##########           Internal_energy_repulsive:           19.523987

@<TRIPOS>MOLECULE
ZINC000508571532
 51 53 1 0 0
SMALL
USER_CHARGES


@<TRIPOS>ATOM
      1 C1         -6.4869    4.0364   49.9487 C.3     1  ZINC000508571532    0.0300
      2 O2         -6.1337    2.6549   49.8576 O.3     1  ZINC000508571532   -0.3200
      3 C3         -6.7813    1.7958   50.6894 C.ar    1  ZINC000508571532    0.0900
      4 C4         -7.7395    2.2739   51.5707 C.ar    1  ZINC000508571532   -0.1700
      5 C5         -8.3974    1.4014   52.4157 C.ar    1  ZINC000508571532   -0.1100
      6 C6         -8.1000    0.0471   52.3823 C.ar    1  ZINC000508571532    0.0900
      7 O7         -8.7472   -0.8118   53.2145 O.3     1  ZINC000508571532   -0.3100
      8 C8         -9.7294   -0.2519   54.0885 C.3     1  ZINC000508571532    0.1500
      9 C9        -10.3531   -1.3491   54.9120 C.2     1  ZINC000508571532    0.1700
     10 N10        -9.7837   -2.4653   55.2693 N.2     1  ZINC000508571532   -0.2500
     11 N11       -10.5998   -3.1731   55.9656 N.2     1  ZINC000508571532   -0.3000
     12 C12       -11.7429   -2.5413   56.0911 C.2     1  ZINC000508571532    0.3500
     13 N13       -12.8622   -2.9909   56.7734 N.3     1  ZINC000508571532   -0.4600
     14 C14       -13.7697   -3.7173   55.8752 C.3     1  ZINC000508571532    0.0300
     15 C15       -12.4796   -3.8239   57.9213 C.3     1  ZINC000508571532    0.1100
     16 C16       -11.9062   -2.9502   59.0071 C.ar    1  ZINC000508571532   -0.0900
     17 C17       -10.5810   -3.0826   59.3731 C.ar    1  ZINC000508571532   -0.0600
     18 C18       -10.0543   -2.2815   60.3697 C.ar    1  ZINC000508571532   -0.1300
     19 C19       -10.8521   -1.3461   61.0018 C.ar    1  ZINC000508571532   -0.0700
     20 C20       -12.1784   -1.2095   60.6390 C.ar    1  ZINC000508571532   -0.1900
     21 C21       -12.7077   -2.0082   59.6361 C.ar    1  ZINC000508571532    0.1100
     22 O22       -14.0118   -1.8758   59.2775 O.3     1  ZINC000508571532   -0.3100
     23 C23       -14.9863   -2.4485   60.1517 C.3     1  ZINC000508571532    0.6000
     24 F24       -15.9890   -3.0630   59.3939 F       1  ZINC000508571532   -0.1600
     25 F25       -14.3734   -3.4005   60.9735 F       1  ZINC000508571532   -0.1300
     26 F26       -15.5506   -1.4428   60.9437 F       1  ZINC000508571532   -0.1600
     27 N27       -11.6195   -1.3552   55.4279 N.pl3   1  ZINC000508571532   -0.4500
     28 C28       -12.6361   -0.3096   55.2889 C.3     1  ZINC000508571532    0.0800
     29 C29        -7.1428   -0.4312   51.5000 C.ar    1  ZINC000508571532   -0.1700
     30 C30        -6.4876    0.4408   50.6524 C.ar    1  ZINC000508571532   -0.1100
     31 H31        -5.8980    4.6101   49.2331 H       1  ZINC000508571532    0.1000
     32 H32        -7.5471    4.1560   49.7255 H       1  ZINC000508571532    0.0600
     33 H33        -6.2850    4.3973   50.9573 H       1  ZINC000508571532    0.0600
     34 H34        -7.9711    3.3285   51.5966 H       1  ZINC000508571532    0.1400
     35 H35        -9.1430    1.7738   53.1025 H       1  ZINC000508571532    0.1300
     36 H36        -9.2561    0.4742   54.7495 H       1  ZINC000508571532    0.0800
     37 H37       -10.5010    0.2428   53.4985 H       1  ZINC000508571532    0.1000
     38 H38       -13.3029   -4.6523   55.5654 H       1  ZINC000508571532    0.0600
     39 H39       -14.7023   -3.9320   56.3968 H       1  ZINC000508571532    0.0800
     40 H40       -13.9772   -3.1064   54.9966 H       1  ZINC000508571532    0.0700
     41 H41       -13.3584   -4.3454   58.3007 H       1  ZINC000508571532    0.0700
     42 H42       -11.7317   -4.5525   57.6083 H       1  ZINC000508571532    0.0900
     43 H43        -9.9556   -3.8126   58.8807 H       1  ZINC000508571532    0.1400
     44 H44        -9.0180   -2.3870   60.6549 H       1  ZINC000508571532    0.1300
     45 H45       -10.4386   -0.7219   61.7800 H       1  ZINC000508571532    0.1400
     46 H46       -12.8014   -0.4789   61.1334 H       1  ZINC000508571532    0.1400
     47 H47       -12.4890    0.4452   56.0615 H       1  ZINC000508571532    0.0900
     48 H48       -12.5484    0.1543   54.3064 H       1  ZINC000508571532    0.0900
     49 H49       -13.6274   -0.7501   55.3955 H       1  ZINC000508571532    0.1000
     50 H50        -6.9114   -1.4859   51.4739 H       1  ZINC000508571532    0.1400
     51 H51        -5.7422    0.0683   49.9653 H       1  ZINC000508571532    0.1400
@<TRIPOS>BOND
     1     1     2    1
     2     1    31    1
     3     1    32    1
     4     1    33    1
     5     2     3    1
     6     3    30   ar
     7     3     4   ar
     8     4     5   ar
     9     4    34    1
    10     5     6   ar
    11     5    35    1
    12     6     7    1
    13     6    29   ar
    14     7     8    1
    15     8     9    1
    16     8    36    1
    17     8    37    1
    18     9    27    1
    19     9    10    2
    20    10    11    1
    21    11    12    2
    22    12    13    1
    23    12    27    1
    24    13    14    1
    25    13    15    1
    26    14    38    1
    27    14    39    1
    28    14    40    1
    29    15    16    1
    30    15    41    1
    31    15    42    1
    32    16    21   ar
    33    16    17   ar
    34    17    18   ar
    35    17    43    1
    36    18    19   ar
    37    18    44    1
    38    19    20   ar
    39    19    45    1
    40    20    21   ar
    41    20    46    1
    42    21    22    1
    43    22    23    1
    44    23    24    1
    45    23    25    1
    46    23    26    1
    47    27    28    1
    48    28    47    1
    49    28    48    1
    50    28    49    1
    51    29    30   ar
    52    29    50    1
    53    30    51    1
@<TRIPOS>SUBSTRUCTURE
     1 ZINC000508571532        1 TEMP              0 ****  ****    0 ROOT


##########                                Name:    ZINC001000186632
##########                DOCK_Rotatable_Bonds:                   7
##########                         Heavy_Atoms:                  23
##########                    Molecular_Weight:             342.379
##########                DOCK_Rotatable_Bonds:                   7
##########                       Formal_Charge:          -0.0100001
##########                     HBond_Acceptors:                  11
##########                        HBond_Donors:                   2
##########                         Heavy_Atoms:                  23
##########                          Grid_Score:          -32.825851
##########                     Grid_vdw_energy:          -31.936171
##########                      Grid_es_energy:           -0.889682
##########           Internal_energy_repulsive:            7.699408

@<TRIPOS>MOLECULE
ZINC001000186632
 41 43 1 0 0
SMALL
USER_CHARGES


@<TRIPOS>ATOM
      1 O1         -6.1592    1.1945   52.6748 O.2     1  ZINC001000186632   -0.5200
      2 C2         -6.1271    0.4567   51.7128 C.2     1  ZINC001000186632    0.5300
      3 C3         -6.9432   -0.8102   51.7073 C.3     1  ZINC001000186632   -0.0500
      4 C4         -8.2589   -0.5632   52.3994 C.2     1  ZINC001000186632    0.2400
      5 N5         -8.4035   -0.0935   53.6107 N.2     1  ZINC001000186632   -0.3000
      6 N6         -9.7845   -0.0215   53.8558 N.pl3   1  ZINC001000186632   -0.4800
      7 C7        -10.3904   -0.4661   52.7412 C.2     1  ZINC001000186632    0.2700
      8 N8         -9.4634   -0.7828   51.8740 N.2     1  ZINC001000186632   -0.5400
      9 N9         -5.3661    0.7726   50.6462 N.am    1  ZINC001000186632   -0.7100
     10 C10        -4.5728    2.0042   50.6516 C.3     1  ZINC001000186632    0.1100
     11 C11        -3.0628    1.7697   50.4638 C.3     1  ZINC001000186632    0.1000
     12 N12        -3.3219    1.9155   49.0183 N.am    1  ZINC001000186632   -0.6500
     13 C13        -2.7038    1.4868   47.8999 C.2     1  ZINC001000186632    0.5100
     14 O14        -3.1583    1.7665   46.8107 O.2     1  ZINC001000186632   -0.5100
     15 C15        -1.4482    0.6600   48.0027 C.3     1  ZINC001000186632    0.1500
     16 N16        -0.6968    0.7551   46.7487 N.am    1  ZINC001000186632   -0.9800
     17 C17        -0.7124   -0.2204   45.6483 C.3     1  ZINC001000186632    0.0800
     18 C18        -0.4409    0.4888   44.3077 C.3     1  ZINC001000186632   -0.1300
     19 C19         0.7574    1.4347   44.6092 C.3     1  ZINC001000186632   -0.6000
     20 S20         0.3294    1.9948   46.3024 S.o2    1  ZINC001000186632    2.5700
     21 O21        -0.4810    3.1616   46.2696 O.2     1  ZINC001000186632   -0.9400
     22 O22         1.4419    1.8806   47.1792 O.2     1  ZINC001000186632   -0.9600
     23 C23        -4.5295    2.7195   49.2891 C.3     1  ZINC001000186632    0.0900
     24 H24        -7.1265   -1.1199   50.6784 H       1  ZINC001000186632    0.1300
     25 H25        -6.3987   -1.5955   52.2316 H       1  ZINC001000186632    0.1200
     26 H26       -10.2155    0.2874   54.6681 H       1  ZINC001000186632    0.4400
     27 H27       -11.4566   -0.5448   52.5872 H       1  ZINC001000186632    0.2200
     28 H28        -5.3435    0.1844   49.8752 H       1  ZINC001000186632    0.4100
     29 H29        -4.8159    2.6627   51.4854 H       1  ZINC001000186632    0.1200
     30 H30        -2.4401    2.5612   50.8806 H       1  ZINC001000186632    0.1000
     31 H31        -2.7340    0.7715   50.7526 H       1  ZINC001000186632    0.0900
     32 H32        -0.8344    1.0320   48.8231 H       1  ZINC001000186632    0.1100
     33 H33        -1.7127   -0.3807   48.1897 H       1  ZINC001000186632    0.1100
     34 H34         0.0574   -0.9726   45.8212 H       1  ZINC001000186632    0.0800
     35 H35        -1.6876   -0.7056   45.6093 H       1  ZINC001000186632    0.0900
     36 H36        -0.1703   -0.2366   43.5407 H       1  ZINC001000186632    0.1100
     37 H37        -1.3128    1.0651   43.9981 H       1  ZINC001000186632    0.1000
     38 H38         1.7013    0.8898   44.5980 H       1  ZINC001000186632    0.1400
     39 H39         0.7811    2.2737   43.9138 H       1  ZINC001000186632    0.1400
     40 H40        -5.3716    2.4795   48.6400 H       1  ZINC001000186632    0.0900
     41 H41        -4.3377    3.7901   49.3608 H       1  ZINC001000186632    0.1100
@<TRIPOS>BOND
     1     1     2    2
     2     2     3    1
     3     2     9   am
     4     3     4    1
     5     3    24    1
     6     3    25    1
     7     4     8    1
     8     4     5    2
     9     5     6    1
    10     6     7    1
    11     6    26    1
    12     7     8    2
    13     7    27    1
    14     9    10    1
    15     9    28    1
    16    10    23    1
    17    10    11    1
    18    10    29    1
    19    11    12    1
    20    11    30    1
    21    11    31    1
    22    12    13   am
    23    12    23    1
    24    13    14    2
    25    13    15    1
    26    15    16    1
    27    15    32    1
    28    15    33    1
    29    16    20   am
    30    16    17    1
    31    17    18    1
    32    17    34    1
    33    17    35    1
    34    18    19    1
    35    18    36    1
    36    18    37    1
    37    19    20    1
    38    19    38    1
    39    19    39    1
    40    20    21    2
    41    20    22    2
    42    23    40    1
    43    23    41    1
@<TRIPOS>SUBSTRUCTURE
     1 ZINC001000186632        1 TEMP              0 ****  ****    0 ROOT


##########                                Name:    ZINC000175255939
##########                DOCK_Rotatable_Bonds:                   8
##########                         Heavy_Atoms:                  28
##########                    Molecular_Weight:             394.375
##########                DOCK_Rotatable_Bonds:                   8
##########                       Formal_Charge:          -0.0399999
##########                     HBond_Acceptors:                   9
##########                        HBond_Donors:                   1
##########                         Heavy_Atoms:                  28
##########                          Grid_Score:          -32.821392
##########                     Grid_vdw_energy:          -32.349693
##########                      Grid_es_energy:           -0.471698
##########           Internal_energy_repulsive:           12.148338

@<TRIPOS>MOLECULE
ZINC000175255939
 48 50 1 0 0
SMALL
USER_CHARGES


@<TRIPOS>ATOM
      1 C1         -1.6083    0.7017   50.1972 C.3     1  ZINC000175255939    0.0300
      2 O2         -2.1528    0.9040   48.8663 O.3     1  ZINC000175255939   -0.3600
      3 C3         -3.1154    1.8304   48.7360 C.2     1  ZINC000175255939    0.4600
      4 O4         -3.4202    2.2346   47.6390 O.2     1  ZINC000175255939   -0.5000
      5 C5         -3.8157    2.3662   49.9580 C.3     1  ZINC000175255939   -0.0800
      6 H6         -3.1010    2.4569   50.7760 H       1  ZINC000175255939    0.1100
      7 C7         -4.4089    3.7412   49.6442 C.3     1  ZINC000175255939   -0.1200
      8 C8         -5.1200    4.2851   50.8849 C.3     1  ZINC000175255939   -0.1100
      9 C9         -6.2412    3.3267   51.2914 C.3     1  ZINC000175255939   -0.1200
     10 C10        -5.6480    1.9517   51.6053 C.3     1  ZINC000175255939   -0.1000
     11 H11        -4.9334    2.0425   52.4232 H       1  ZINC000175255939    0.1100
     12 C12        -6.7525    1.0077   52.0056 C.2     1  ZINC000175255939    0.5100
     13 O13        -6.5908   -0.1903   51.9093 O.2     1  ZINC000175255939   -0.4800
     14 N14        -7.9198    1.4950   52.4707 N.am    1  ZINC000175255939   -0.6300
     15 C15        -8.9374    0.6257   52.8379 C.2     1  ZINC000175255939    0.2100
     16 C16        -9.1952    0.1546   54.0905 C.2     1  ZINC000175255939   -0.2600
     17 C17       -10.3258   -0.6844   53.9123 C.2     1  ZINC000175255939    0.0900
     18 C18       -11.0331   -1.4603   54.9610 C.ar    1  ZINC000175255939   -0.0500
     19 C19       -12.3822   -1.2208   55.2162 C.ar    1  ZINC000175255939   -0.0600
     20 C20       -13.0369   -1.9432   56.1911 C.ar    1  ZINC000175255939   -0.1300
     21 C21       -12.3533   -2.9083   56.9187 C.ar    1  ZINC000175255939    0.1200
     22 O22       -13.0009   -3.6187   57.8787 O.3     1  ZINC000175255939   -0.3200
     23 C23       -14.0347   -4.5043   57.4441 C.3     1  ZINC000175255939    0.4100
     24 F24       -13.4614   -5.6563   56.8948 F       1  ZINC000175255939   -0.2000
     25 F25       -14.8359   -4.8569   58.5353 F       1  ZINC000175255939   -0.2000
     26 C26       -11.0093   -3.1491   56.6665 C.ar    1  ZINC000175255939   -0.1900
     27 C27       -10.3511   -2.4340   55.6885 C.ar    1  ZINC000175255939   -0.0500
     28 N28       -10.6205   -0.6367   52.6351 N.2     1  ZINC000175255939   -0.3600
     29 O29        -9.8653    0.0879   52.0302 O.3     1  ZINC000175255939    0.1200
     30 C30        -4.9370    1.4078   50.3646 C.3     1  ZINC000175255939   -0.0900
     31 H31        -0.8414   -0.0720   50.1623 H       1  ZINC000175255939    0.1000
     32 H32        -1.1691    1.6328   50.5554 H       1  ZINC000175255939    0.0600
     33 H33        -2.4058    0.3926   50.8729 H       1  ZINC000175255939    0.0600
     34 H34        -3.6101    4.4239   49.3546 H       1  ZINC000175255939    0.0800
     35 H35        -5.1237    3.6504   48.8263 H       1  ZINC000175255939    0.0700
     36 H36        -4.4053    4.3759   51.7028 H       1  ZINC000175255939    0.0700
     37 H37        -5.5425    5.2647   50.6613 H       1  ZINC000175255939    0.0800
     38 H38        -6.7479    3.7142   52.1753 H       1  ZINC000175255939    0.0700
     39 H39        -6.9560    3.2360   50.4735 H       1  ZINC000175255939    0.0800
     40 H40        -8.0487    2.4532   52.5490 H       1  ZINC000175255939    0.4300
     41 H41        -8.6630    0.3694   55.0054 H       1  ZINC000175255939    0.1800
     42 H42       -12.9142   -0.4696   54.6511 H       1  ZINC000175255939    0.1400
     43 H43       -14.0822   -1.7580   56.3894 H       1  ZINC000175255939    0.1400
     44 H44       -14.6455   -4.0076   56.6902 H       1  ZINC000175255939    0.1900
     45 H45       -10.4801   -3.9003   57.2340 H       1  ZINC000175255939    0.1400
     46 H46        -9.3058   -2.6220   55.4926 H       1  ZINC000175255939    0.1400
     47 H47        -5.6517    1.3170   49.5467 H       1  ZINC000175255939    0.0900
     48 H48        -4.5144    0.4282   50.5881 H       1  ZINC000175255939    0.0800
@<TRIPOS>BOND
     1     1     2    1
     2     1    31    1
     3     1    32    1
     4     1    33    1
     5     2     3    1
     6     3     4    2
     7     3     5    1
     8     5     6    1
     9     5    30    1
    10     5     7    1
    11     7     8    1
    12     7    34    1
    13     7    35    1
    14     8     9    1
    15     8    36    1
    16     8    37    1
    17     9    10    1
    18     9    38    1
    19     9    39    1
    20    10    11    1
    21    10    12    1
    22    10    30    1
    23    12    13    2
    24    12    14   am
    25    14    15    1
    26    14    40    1
    27    15    29    1
    28    15    16    2
    29    16    17    1
    30    16    41    1
    31    17    18    1
    32    17    28    2
    33    18    27   ar
    34    18    19   ar
    35    19    20   ar
    36    19    42    1
    37    20    21   ar
    38    20    43    1
    39    21    22    1
    40    21    26   ar
    41    22    23    1
    42    23    24    1
    43    23    25    1
    44    23    44    1
    45    26    27   ar
    46    26    45    1
    47    27    46    1
    48    28    29    1
    49    30    47    1
    50    30    48    1
@<TRIPOS>SUBSTRUCTURE
     1 ZINC000175255939        1 TEMP              0 ****  ****    0 ROOT


##########                                Name:    ZINC000185180600
##########                DOCK_Rotatable_Bonds:                   7
##########                         Heavy_Atoms:                  26
##########                    Molecular_Weight:             395.953
##########                DOCK_Rotatable_Bonds:                   7
##########                       Formal_Charge:          0.00999977
##########                     HBond_Acceptors:                   7
##########                        HBond_Donors:                   0
##########                         Heavy_Atoms:                  26
##########                          Grid_Score:          -32.803993
##########                     Grid_vdw_energy:          -32.252041
##########                      Grid_es_energy:           -0.551954
##########           Internal_energy_repulsive:           19.140812

@<TRIPOS>MOLECULE
ZINC000185180600
 52 53 1 0 0
SMALL
USER_CHARGES


@<TRIPOS>ATOM
      1 C1        -16.4041   -2.5415   58.8726 C.3     1  ZINC000185180600   -0.1500
      2 C2        -15.0807   -3.2073   59.2551 C.3     1  ZINC000185180600   -0.0900
      3 C3        -14.6659   -4.1866   58.1552 C.3     1  ZINC000185180600   -0.1500
      4 C4        -13.9999   -2.1368   59.4190 C.3     1  ZINC000185180600   -0.1300
      5 C5        -13.5254   -2.1097   60.8732 C.3     1  ZINC000185180600    0.1300
      6 H6        -13.2608   -3.1191   61.1880 H       1  ZINC000185180600    0.1100
      7 C7        -14.6470   -1.5746   61.7657 C.3     1  ZINC000185180600   -0.1600
      8 N8        -12.3526   -1.2392   60.9881 N.am    1  ZINC000185180600   -0.6000
      9 C9        -12.5212    0.2156   61.0262 C.3     1  ZINC000185180600    0.0700
     10 C10       -11.1188   -1.7767   61.0588 C.2     1  ZINC000185180600    0.5400
     11 O11       -10.9791   -2.9810   61.0258 O.2     1  ZINC000185180600   -0.5300
     12 C12        -9.9125   -0.8813   61.1788 C.3     1  ZINC000185180600   -0.5000
     13 S13        -9.4095   -0.3200   59.5287 S.o     1  ZINC000185180600    1.3200
     14 O14        -9.0059   -1.4385   58.7506 O.2     1  ZINC000185180600   -0.8000
     15 C15        -7.9691    0.7267   59.8754 C.3     1  ZINC000185180600   -0.3900
     16 C16        -7.4263    1.2784   58.5824 C.2     1  ZINC000185180600    0.1000
     17 N17        -7.6182    0.7711   57.3913 N.2     1  ZINC000185180600   -0.2800
     18 N18        -6.9498    1.5758   56.4594 N.pl3   1  ZINC000185180600   -0.3200
     19 C19        -6.9091    1.3728   55.0727 C.ar    1  ZINC000185180600    0.1700
     20 C20        -7.7427    0.4323   54.4829 C.ar    1  ZINC000185180600   -0.1300
     21 C21        -7.7007    0.2341   53.1168 C.ar    1  ZINC000185180600   -0.0800
     22 C22        -6.8282    0.9719   52.3359 C.ar    1  ZINC000185180600   -0.0500
     23 Cl23       -6.7778    0.7205   50.6189 Cl      1  ZINC000185180600   -0.0600
     24 C24        -5.9964    1.9100   52.9216 C.ar    1  ZINC000185180600   -0.0800
     25 C25        -6.0391    2.1161   54.2865 C.ar    1  ZINC000185180600   -0.1100
     26 C26        -6.3507    2.5827   57.1343 C.2     1  ZINC000185180600    0.0600
     27 C27        -6.6354    2.4247   58.4479 C.2     1  ZINC000185180600   -0.2500
     28 H28       -17.1741   -3.3041   58.7558 H       1  ZINC000185180600    0.0500
     29 H29       -16.6996   -1.8438   59.6561 H       1  ZINC000185180600    0.0600
     30 H30       -16.2814   -2.0023   57.9333 H       1  ZINC000185180600    0.0500
     31 H31       -15.2034   -3.7465   60.1943 H       1  ZINC000185180600    0.0700
     32 H32       -15.3945   -4.9951   58.0948 H       1  ZINC000185180600    0.0500
     33 H33       -14.6236   -3.6635   57.1998 H       1  ZINC000185180600    0.0500
     34 H34       -13.6841   -4.5991   58.3873 H       1  ZINC000185180600    0.0500
     35 H35       -13.1580   -2.3677   58.7663 H       1  ZINC000185180600    0.0700
     36 H36       -14.4099   -1.1627   59.1524 H       1  ZINC000185180600    0.0800
     37 H37       -14.9116   -0.5651   61.4509 H       1  ZINC000185180600    0.0600
     38 H38       -15.5195   -2.2223   61.6803 H       1  ZINC000185180600    0.0700
     39 H39       -14.3090   -1.5553   62.8019 H       1  ZINC000185180600    0.0600
     40 H40       -12.6370    0.5410   62.0600 H       1  ZINC000185180600    0.0600
     41 H41       -11.6442    0.6945   60.5907 H       1  ZINC000185180600    0.0700
     42 H42       -13.4077    0.4937   60.4563 H       1  ZINC000185180600    0.0800
     43 H43       -10.1609   -0.0180   61.7962 H       1  ZINC000185180600    0.1500
     44 H44        -9.0940   -1.4343   61.6397 H       1  ZINC000185180600    0.1200
     45 H45        -8.2660    1.5498   60.5254 H       1  ZINC000185180600    0.1400
     46 H46        -7.1991    0.1335   60.3688 H       1  ZINC000185180600    0.1000
     47 H47        -8.4232   -0.1443   55.0920 H       1  ZINC000185180600    0.1400
     48 H48        -8.3490   -0.4975   52.6575 H       1  ZINC000185180600    0.1500
     49 H49        -5.3161    2.4843   52.3102 H       1  ZINC000185180600    0.1400
     50 H50        -5.3896    2.8483   54.7431 H       1  ZINC000185180600    0.1500
     51 H51        -5.7559    3.3739   56.7021 H       1  ZINC000185180600    0.1800
     52 H52        -6.3041    3.0659   59.2513 H       1  ZINC000185180600    0.1700
@<TRIPOS>BOND
     1     1     2    1
     2     1    28    1
     3     1    29    1
     4     1    30    1
     5     2     3    1
     6     2     4    1
     7     2    31    1
     8     3    32    1
     9     3    33    1
    10     3    34    1
    11     4     5    1
    12     4    35    1
    13     4    36    1
    14     5     6    1
    15     5     7    1
    16     5     8    1
    17     7    37    1
    18     7    38    1
    19     7    39    1
    20     8     9    1
    21     8    10   am
    22     9    40    1
    23     9    41    1
    24     9    42    1
    25    10    11    2
    26    10    12    1
    27    12    13    1
    28    12    43    1
    29    12    44    1
    30    13    14    2
    31    13    15    1
    32    15    16    1
    33    15    45    1
    34    15    46    1
    35    16    27    1
    36    16    17    2
    37    17    18    1
    38    18    19    1
    39    18    26    1
    40    19    25   ar
    41    19    20   ar
    42    20    21   ar
    43    20    47    1
    44    21    22   ar
    45    21    48    1
    46    22    23    1
    47    22    24   ar
    48    24    25   ar
    49    24    49    1
    50    25    50    1
    51    26    27    2
    52    26    51    1
    53    27    52    1
@<TRIPOS>SUBSTRUCTURE
     1 ZINC000185180600        1 TEMP              0 ****  ****    0 ROOT


##########                                Name:    ZINC001461256440
##########                DOCK_Rotatable_Bonds:                  13
##########                         Heavy_Atoms:                  26
##########                    Molecular_Weight:             367.445
##########                DOCK_Rotatable_Bonds:                  13
##########                       Formal_Charge:        -6.37025e-07
##########                     HBond_Acceptors:                   8
##########                        HBond_Donors:                   1
##########                         Heavy_Atoms:                  26
##########                          Grid_Score:          -32.802654
##########                     Grid_vdw_energy:          -32.209351
##########                      Grid_es_energy:           -0.593304
##########           Internal_energy_repulsive:           36.200684

@<TRIPOS>MOLECULE
ZINC001461256440
 55 55 1 0 0
SMALL
USER_CHARGES


@<TRIPOS>ATOM
      1 C1         -7.9870   -0.0864   63.9440 C.3     1  ZINC001461256440   -0.1500
      2 C2         -9.4610   -0.0073   63.5413 C.3     1  ZINC001461256440    0.0600
      3 O3         -9.7365   -0.9979   62.5161 O.3     1  ZINC001461256440   -0.3600
      4 C4         -9.4040   -0.6790   61.2554 C.2     1  ZINC001461256440    0.4400
      5 O5         -9.1925    0.4732   60.9595 O.2     1  ZINC001461256440   -0.4800
      6 C6         -9.2947   -1.7579   60.2090 C.3     1  ZINC001461256440    0.1400
      7 N7        -10.6367   -2.1682   59.7885 N.pl3   1  ZINC001461256440   -0.3800
      8 N8        -11.7377   -2.3724   60.6300 N.2     1  ZINC001461256440   -0.2800
      9 C9        -12.7586   -2.7304   59.8938 C.2     1  ZINC001461256440    0.1000
     10 C10       -14.1425   -3.0477   60.3990 C.3     1  ZINC001461256440   -0.0700
     11 C11       -12.3464   -2.7673   58.5590 C.2     1  ZINC001461256440   -0.2700
     12 C12       -11.0334   -2.4110   58.5184 C.2     1  ZINC001461256440    0.3100
     13 N13       -10.2390   -2.3209   57.3754 N.am    1  ZINC001461256440   -0.6500
     14 C14       -10.4751   -1.3556   56.4650 C.2     1  ZINC001461256440    0.5200
     15 O15       -11.3776   -0.5643   56.6402 O.2     1  ZINC001461256440   -0.5000
     16 C16        -9.6180   -1.2594   55.2293 C.3     1  ZINC001461256440   -0.1300
     17 C17        -8.6865   -0.0514   55.3475 C.3     1  ZINC001461256440   -0.1100
     18 C18        -8.0203    0.2131   53.9958 C.3     1  ZINC001461256440   -0.1100
     19 C19        -7.1349    1.4567   54.0982 C.3     1  ZINC001461256440   -0.1200
     20 C20        -6.4822    1.7197   52.7656 C.2     1  ZINC001461256440    0.4600
     21 O21        -5.3667    1.3098   52.5479 O.2     1  ZINC001461256440   -0.5000
     22 O22        -7.1401    2.4093   51.8205 O.3     1  ZINC001461256440   -0.3500
     23 C23        -6.4814    2.5594   50.5352 C.3     1  ZINC001461256440    0.1200
     24 C24        -7.3997    3.3212   49.5774 C.3     1  ZINC001461256440   -0.1800
     25 C25        -5.1770    3.3376   50.7184 C.3     1  ZINC001461256440   -0.1400
     26 C26        -6.1736    1.1773   49.9554 C.3     1  ZINC001461256440   -0.1800
     27 H27        -7.7802    0.6573   64.7136 H       1  ZINC001461256440    0.0800
     28 H28        -7.7694   -1.0813   64.3323 H       1  ZINC001461256440    0.0700
     29 H29        -7.3614    0.1085   63.0730 H       1  ZINC001461256440    0.0700
     30 H30       -10.0866   -0.2022   64.4123 H       1  ZINC001461256440    0.0700
     31 H31        -9.6786    0.9877   63.1529 H       1  ZINC001461256440    0.0700
     32 H32        -8.7454   -1.3754   59.3488 H       1  ZINC001461256440    0.1300
     33 H33        -8.7664   -2.6156   60.6253 H       1  ZINC001461256440    0.1400
     34 H34       -14.7424   -2.1377   60.4111 H       1  ZINC001461256440    0.0800
     35 H35       -14.6093   -3.7820   59.7427 H       1  ZINC001461256440    0.0800
     36 H36       -14.0766   -3.4529   61.4089 H       1  ZINC001461256440    0.0700
     37 H37       -12.9612   -3.0285   57.7103 H       1  ZINC001461256440    0.1800
     38 H38        -9.5166   -2.9529   57.2360 H       1  ZINC001461256440    0.4100
     39 H39        -9.0241   -2.1677   55.1275 H       1  ZINC001461256440    0.1000
     40 H40       -10.2556   -1.1422   54.3530 H       1  ZINC001461256440    0.1000
     41 H41        -9.2631    0.8241   55.6459 H       1  ZINC001461256440    0.0800
     42 H42        -7.9210   -0.2548   56.0962 H       1  ZINC001461256440    0.0800
     43 H43        -7.4096   -0.6458   53.7175 H       1  ZINC001461256440    0.0700
     44 H44        -8.7871    0.3744   53.2381 H       1  ZINC001461256440    0.0700
     45 H45        -7.7451    2.3149   54.3796 H       1  ZINC001461256440    0.1100
     46 H46        -6.3662    1.2942   54.8536 H       1  ZINC001461256440    0.1100
     47 H47        -7.6190    4.3058   49.9904 H       1  ZINC001461256440    0.0600
     48 H48        -6.9052    3.4339   48.6125 H       1  ZINC001461256440    0.0700
     49 H49        -8.3290    2.7668   49.4469 H       1  ZINC001461256440    0.0800
     50 H50        -4.5229    2.7949   51.4007 H       1  ZINC001461256440    0.0700
     51 H51        -4.6826    3.4503   49.7536 H       1  ZINC001461256440    0.0800
     52 H52        -5.3964    4.3223   51.1314 H       1  ZINC001461256440    0.0700
     53 H53        -7.1030    0.6229   49.8249 H       1  ZINC001461256440    0.0800
     54 H54        -5.6792    1.2900   48.9906 H       1  ZINC001461256440    0.0700
     55 H55        -5.5195    0.6346   50.6377 H       1  ZINC001461256440    0.0600
@<TRIPOS>BOND
     1     1     2    1
     2     1    27    1
     3     1    28    1
     4     1    29    1
     5     2     3    1
     6     2    30    1
     7     2    31    1
     8     3     4    1
     9     4     5    2
    10     4     6    1
    11     6     7    1
    12     6    32    1
    13     6    33    1
    14     7    12    1
    15     7     8    1
    16     8     9    2
    17     9    10    1
    18     9    11    1
    19    10    34    1
    20    10    35    1
    21    10    36    1
    22    11    12    2
    23    11    37    1
    24    12    13    1
    25    13    14   am
    26    13    38    1
    27    14    15    2
    28    14    16    1
    29    16    17    1
    30    16    39    1
    31    16    40    1
    32    17    18    1
    33    17    41    1
    34    17    42    1
    35    18    19    1
    36    18    43    1
    37    18    44    1
    38    19    20    1
    39    19    45    1
    40    19    46    1
    41    20    21    2
    42    20    22    1
    43    22    23    1
    44    23    24    1
    45    23    25    1
    46    23    26    1
    47    24    47    1
    48    24    48    1
    49    24    49    1
    50    25    50    1
    51    25    51    1
    52    25    52    1
    53    26    53    1
    54    26    54    1
    55    26    55    1
@<TRIPOS>SUBSTRUCTURE
     1 ZINC001461256440        1 TEMP              0 ****  ****    0 ROOT


##########                                Name:    ZINC000193795672
##########                DOCK_Rotatable_Bonds:                  10
##########                         Heavy_Atoms:                  23
##########                    Molecular_Weight:              332.47
##########                DOCK_Rotatable_Bonds:                  10
##########                       Formal_Charge:        -2.98023e-07
##########                     HBond_Acceptors:                   6
##########                        HBond_Donors:                   3
##########                         Heavy_Atoms:                  23
##########                          Grid_Score:          -32.796726
##########                     Grid_vdw_energy:          -29.359695
##########                      Grid_es_energy:           -3.437029
##########           Internal_energy_repulsive:            6.684024

@<TRIPOS>MOLECULE
ZINC000193795672
 47 48 1 0 0
SMALL
USER_CHARGES


@<TRIPOS>ATOM
      1 C1         -8.5552   -0.4561   53.5198 C.3     1  <0>        -0.1000
      2 C2         -7.8482    0.2214   52.3742 C.ar    1  <0>        -0.2000
      3 C3         -8.3061    1.4391   51.8894 C.ar    1  <0>        -0.0300
      4 C4         -7.6281    2.0276   50.8368 C.ar    1  <0>        -0.2400
      5 C5         -6.5171    1.3831   50.3030 C.ar    1  <0>         0.4000
      6 N6         -5.8265    1.9632   49.2452 N.pl3   1  <0>        -0.7300
      7 C7         -4.8865    3.0584   49.4967 C.3     1  <0>         0.1300
      8 C8         -3.5033    2.6750   48.9669 C.3     1  <0>        -0.1400
      9 C9         -2.5292    2.5354   50.1385 C.3     1  <0>         0.1400
     10 N10        -1.4718    1.5855   49.7838 N.am    1  <0>        -0.7500
     11 C11        -0.4831    1.9590   48.9476 C.2     1  <0>         0.7100
     12 O12        -0.4678    3.0849   48.4888 O.2     1  <0>        -0.5900
     13 N13         0.4888    1.0846   48.6201 N.am    1  <0>        -0.7400
     14 C14         1.5626    1.4901   47.7097 C.3     1  <0>         0.1700
     15 H15         1.2683    2.3973   47.1820 H       1  <0>         0.0900
     16 C16         2.8376    1.7576   48.5119 C.3     1  <0>        -0.1700
     17 C17         1.8221    0.3726   46.6973 C.3     1  <0>        -0.0600
     18 C18         0.6138    0.2063   45.8120 C.2     1  <0>        -0.1700
     19 C19        -0.3694   -0.6730   46.0102 C.2     1  <0>        -0.1400
     20 C20        -1.3785   -0.6428   45.0632 C.2     1  <0>        -0.1300
     21 C21        -1.2148    0.2611   44.0959 C.2     1  <0>        -0.2100
     22 S22         0.2807    1.1473   44.3639 S.3     1  <0>         0.0900
     23 N23        -6.1111    0.2222   50.7937 N.ar    1  <0>        -0.5400
     24 C24        -6.7353   -0.3598   51.8000 C.ar    1  <0>         0.1500
     25 H25        -8.1220   -0.1222   54.4626 H       1  <0>         0.0700
     26 H26        -9.6144   -0.1999   53.4957 H       1  <0>         0.0600
     27 H27        -8.4405   -1.5363   53.4297 H       1  <0>         0.0700
     28 H28        -9.1723    1.9160   52.3238 H       1  <0>         0.1300
     29 H29        -7.9574    2.9745   50.4348 H       1  <0>         0.1300
     30 H30        -5.9671    1.6428   48.3404 H       1  <0>         0.4000
     31 H31        -5.2333    3.9586   48.9893 H       1  <0>         0.0700
     32 H32        -4.8258    3.2461   50.5687 H       1  <0>         0.0700
     33 H33        -3.5686    1.7266   48.4337 H       1  <0>         0.0800
     34 H34        -3.1467    3.4497   48.2882 H       1  <0>         0.0800
     35 H35        -2.0861    3.5062   50.3603 H       1  <0>         0.0700
     36 H36        -3.0651    2.1718   51.0152 H       1  <0>         0.0700
     37 H37        -1.4833    0.6876   50.1509 H       1  <0>         0.4000
     38 H38         0.4773    0.1867   48.9870 H       1  <0>         0.3900
     39 H39         3.1319    0.8504   49.0396 H       1  <0>         0.0600
     40 H40         3.6366    2.0592   47.8345 H       1  <0>         0.0700
     41 H41         2.6528    2.5537   49.2331 H       1  <0>         0.0700
     42 H42         2.6875    0.6295   46.0865 H       1  <0>         0.1000
     43 H43         2.0153   -0.5601   47.2272 H       1  <0>         0.0800
     44 H44        -0.3774   -1.3569   46.8460 H       1  <0>         0.1400
     45 H45        -2.2335   -1.3014   45.1041 H       1  <0>         0.1400
     46 H46        -1.8978    0.4260   43.2758 H       1  <0>         0.1600
     47 H47        -6.3756   -1.3069   52.1742 H       1  <0>         0.1500
@<TRIPOS>BOND
     1     1     2    1
     2     1    25    1
     3     1    26    1
     4     1    27    1
     5     2    24   ar
     6     2     3   ar
     7     3     4   ar
     8     3    28    1
     9     4     5   ar
    10     4    29    1
    11     5     6    1
    12     5    23   ar
    13     6     7    1
    14     6    30    1
    15     7     8    1
    16     7    31    1
    17     7    32    1
    18     8     9    1
    19     8    33    1
    20     8    34    1
    21     9    10    1
    22     9    35    1
    23     9    36    1
    24    10    11   am
    25    10    37    1
    26    11    12    2
    27    11    13   am
    28    13    14    1
    29    13    38    1
    30    14    15    1
    31    14    16    1
    32    14    17    1
    33    16    39    1
    34    16    40    1
    35    16    41    1
    36    17    18    1
    37    17    42    1
    38    17    43    1
    39    18    22    1
    40    18    19    2
    41    19    20    1
    42    19    44    1
    43    20    21    2
    44    20    45    1
    45    21    22    1
    46    21    46    1
    47    23    24   ar
    48    24    47    1
@<TRIPOS>SUBSTRUCTURE
     1 <0>         1 TEMP              0 ****  ****    0 ROOT


##########                                Name:    ZINC000609484313
##########                DOCK_Rotatable_Bonds:                  10
##########                         Heavy_Atoms:                  26
##########                    Molecular_Weight:             361.487
##########                DOCK_Rotatable_Bonds:                  10
##########                       Formal_Charge:          -0.0200004
##########                     HBond_Acceptors:                   7
##########                        HBond_Donors:                   1
##########                         Heavy_Atoms:                  26
##########                          Grid_Score:          -32.755764
##########                     Grid_vdw_energy:          -30.902983
##########                      Grid_es_energy:           -1.852780
##########           Internal_energy_repulsive:           33.696922

@<TRIPOS>MOLECULE
ZINC000609484313
 57 58 1 0 0
SMALL
USER_CHARGES


@<TRIPOS>ATOM
      1 C1         -9.3938    4.2089   50.9332 C.3     1  ZINC000609484313   -0.1500
      2 C2         -8.2326    3.6807   50.0886 C.3     1  ZINC000609484313   -0.1300
      3 C3         -6.9166    4.2596   50.6121 C.3     1  ZINC000609484313   -0.1100
      4 C4         -5.7641    3.7944   49.7197 C.3     1  ZINC000609484313   -0.1100
      5 C5         -4.9599    2.7147   50.4466 C.3     1  ZINC000609484313    0.0800
      6 H6         -4.4427    3.1579   51.2975 H       1  ZINC000609484313    0.1200
      7 C7         -5.8924    1.6351   50.9321 C.2     1  ZINC000609484313    0.4900
      8 O8         -6.3554    0.8353   50.1468 O.2     1  ZINC000609484313   -0.5000
      9 N9         -6.2121    1.5585   52.2393 N.am    1  ZINC000609484313   -0.6300
     10 C10        -7.0740    0.5581   52.6890 C.2     1  ZINC000609484313    0.2400
     11 N11        -7.4086   -0.5339   52.0529 N.2     1  ZINC000609484313   -0.3900
     12 O12        -8.1750   -1.2071   52.7020 O.3     1  ZINC000609484313    0.1000
     13 C13        -8.4580   -0.6386   53.8830 C.2     1  ZINC000609484313   -0.0200
     14 C14        -9.3707   -1.1856   54.9502 C.3     1  ZINC000609484313   -0.0800
     15 C15        -7.7594    0.5185   53.9323 C.2     1  ZINC000609484313   -0.2300
     16 N16        -3.9756    2.1330   49.5241 N.3     1  ZINC000609484313   -0.5000
     17 C17        -2.9663    1.3533   50.2540 C.3     1  ZINC000609484313    0.0400
     18 C18        -2.0087    0.7005   49.2544 C.3     1  ZINC000609484313    0.0500
     19 N19        -1.3741    1.7429   48.4357 N.3     1  ZINC000609484313   -0.5100
     20 C20        -0.3898    1.1612   47.5132 C.3     1  ZINC000609484313    0.1800
     21 H21        -0.1398    0.1512   47.8381 H       1  ZINC000609484313    0.1200
     22 C22        -0.9576    1.1137   46.1559 C.1     1  ZINC000609484313    0.1700
     23 N23        -1.3957    1.0771   45.1085 N.1     1  ZINC000609484313   -0.4200
     24 C24         0.8747    2.0226   47.5072 C.3     1  ZINC000609484313   -0.0800
     25 C25         1.5391    1.9627   48.8842 C.3     1  ZINC000609484313   -0.1400
     26 C26         1.8460    1.4952   46.4490 C.3     1  ZINC000609484313   -0.1500
     27 C27        -2.3834    2.5225   47.7057 C.3     1  ZINC000609484313    0.0500
     28 C28        -3.3409    3.1754   48.7054 C.3     1  ZINC000609484313    0.0400
     29 H29        -9.2531    3.9097   51.9718 H       1  ZINC000609484313    0.0500
     30 H30        -9.4243    5.2966   50.8694 H       1  ZINC000609484313    0.0500
     31 H31       -10.3313    3.7965   50.5602 H       1  ZINC000609484313    0.0500
     32 H32        -8.2021    2.5931   50.1525 H       1  ZINC000609484313    0.0600
     33 H33        -8.3733    3.9799   49.0499 H       1  ZINC000609484313    0.0600
     34 H34        -6.9684    5.3482   50.6007 H       1  ZINC000609484313    0.0800
     35 H35        -6.7482    3.9144   51.6323 H       1  ZINC000609484313    0.0600
     36 H36        -6.1648    3.3862   48.7919 H       1  ZINC000609484313    0.0700
     37 H37        -5.1151    4.6406   49.4939 H       1  ZINC000609484313    0.0800
     38 H38        -5.8427    2.1988   52.8672 H       1  ZINC000609484313    0.4200
     39 H39        -9.7844   -2.1387   54.6208 H       1  ZINC000609484313    0.0800
     40 H40        -8.8058   -1.3333   55.8706 H       1  ZINC000609484313    0.0900
     41 H41       -10.1820   -0.4804   55.1309 H       1  ZINC000609484313    0.0900
     42 H42        -7.7343    1.2469   54.7292 H       1  ZINC000609484313    0.1900
     43 H43        -2.4061    2.0132   50.9165 H       1  ZINC000609484313    0.0800
     44 H44        -3.4599    0.5801   50.8429 H       1  ZINC000609484313    0.0800
     45 H45        -1.2419    0.1452   49.7947 H       1  ZINC000609484313    0.0900
     46 H46        -2.5647    0.0199   48.6096 H       1  ZINC000609484313    0.0400
     47 H47         0.6104    3.0544   47.2758 H       1  ZINC000609484313    0.0800
     48 H48         1.8034    0.9308   49.1155 H       1  ZINC000609484313    0.0600
     49 H49         2.4400    2.5763   48.8799 H       1  ZINC000609484313    0.0500
     50 H50         0.8472    2.3384   49.6380 H       1  ZINC000609484313    0.0700
     51 H51         2.7829    2.0490   46.5078 H       1  ZINC000609484313    0.0700
     52 H52         2.0375    0.4370   46.6267 H       1  ZINC000609484313    0.0600
     53 H53         1.4093    1.6241   45.4587 H       1  ZINC000609484313    0.0500
     54 H54        -1.8898    3.2957   47.1169 H       1  ZINC000609484313    0.0900
     55 H55        -2.9436    1.8626   47.0433 H       1  ZINC000609484313    0.0400
     56 H56        -4.1077    3.7306   48.1652 H       1  ZINC000609484313    0.0800
     57 H57        -2.7850    3.8560   49.3502 H       1  ZINC000609484313    0.0800
@<TRIPOS>BOND
     1     1     2    1
     2     1    29    1
     3     1    30    1
     4     1    31    1
     5     2     3    1
     6     2    32    1
     7     2    33    1
     8     3     4    1
     9     3    34    1
    10     3    35    1
    11     4     5    1
    12     4    36    1
    13     4    37    1
    14     5     6    1
    15     5     7    1
    16     5    16    1
    17     7     8    2
    18     7     9   am
    19     9    10    1
    20     9    38    1
    21    10    15    1
    22    10    11    2
    23    11    12    1
    24    12    13    1
    25    13    14    1
    26    13    15    2
    27    14    39    1
    28    14    40    1
    29    14    41    1
    30    15    42    1
    31    16    28    1
    32    16    17    1
    33    17    18    1
    34    17    43    1
    35    17    44    1
    36    18    19    1
    37    18    45    1
    38    18    46    1
    39    19    20    1
    40    19    27    1
    41    20    21    1
    42    20    22    1
    43    20    24    1
    44    22    23    3
    45    24    25    1
    46    24    26    1
    47    24    47    1
    48    25    48    1
    49    25    49    1
    50    25    50    1
    51    26    51    1
    52    26    52    1
    53    26    53    1
    54    27    28    1
    55    27    54    1
    56    27    55    1
    57    28    56    1
    58    28    57    1
@<TRIPOS>SUBSTRUCTURE
     1 ZINC000609484313        1 TEMP              0 ****  ****    0 ROOT


##########                                Name:    ZINC000750807956
##########                DOCK_Rotatable_Bonds:                  11
##########                         Heavy_Atoms:                  26
##########                    Molecular_Weight:             368.473
##########                DOCK_Rotatable_Bonds:                  11
##########                       Formal_Charge:        -8.12113e-07
##########                     HBond_Acceptors:                   7
##########                        HBond_Donors:                   1
##########                         Heavy_Atoms:                  26
##########                          Grid_Score:          -32.734055
##########                     Grid_vdw_energy:          -32.151402
##########                      Grid_es_energy:           -0.582652
##########           Internal_energy_repulsive:           74.533905

@<TRIPOS>MOLECULE
ZINC000750807956
 58 59 1 0 0
SMALL
USER_CHARGES


@<TRIPOS>ATOM
      1 C1        -14.0737   -3.4839   56.7082 C.3     1  ZINC000750807956   -0.1500
      2 C2        -12.7338   -4.1262   57.0730 C.3     1  ZINC000750807956    0.0700
      3 O3        -12.0381   -3.2846   58.0300 O.3     1  ZINC000750807956   -0.3600
      4 C4        -10.7377   -3.5443   58.2379 C.2     1  ZINC000750807956    0.4800
      5 O5        -10.1954   -4.4368   57.6303 O.2     1  ZINC000750807956   -0.4900
      6 C6         -9.9542   -2.7230   59.2290 C.3     1  ZINC000750807956    0.1600
      7 H7         -9.1015   -3.2993   59.5882 H       1  ZINC000750807956    0.1000
      8 C8        -10.8544   -2.3475   60.4103 C.3     1  ZINC000750807956   -0.1300
      9 C9        -10.0966   -1.3999   61.3430 C.3     1  ZINC000750807956   -0.1200
     10 C10        -9.7328   -0.1200   60.5869 C.3     1  ZINC000750807956   -0.1400
     11 C11        -8.8199   -0.4703   59.4076 C.3     1  ZINC000750807956    0.1100
     12 N12        -9.4794   -1.4920   58.5825 N.am    1  ZINC000750807956   -0.6100
     13 C13        -9.6499   -1.3010   57.2593 C.2     1  ZINC000750807956    0.5100
     14 O14       -10.1958   -2.1518   56.5892 O.2     1  ZINC000750807956   -0.5000
     15 C15        -9.1624   -0.0302   56.6124 C.3     1  ZINC000750807956   -0.1400
     16 C16        -9.1821   -0.1922   55.0911 C.3     1  ZINC000750807956    0.2100
     17 H17        -9.2945   -1.2468   54.8396 H       1  ZINC000750807956    0.1000
     18 N18        -7.9267    0.3126   54.5299 N.am    1  ZINC000750807956   -0.7000
     19 C19        -7.4353   -0.2180   53.3926 C.2     1  ZINC000750807956    0.6600
     20 O20        -8.0345   -1.1141   52.8318 O.2     1  ZINC000750807956   -0.5600
     21 O21        -6.2807    0.2449   52.8777 O.3     1  ZINC000750807956   -0.3700
     22 C22        -6.3789    1.1423   51.7404 C.3     1  ZINC000750807956    0.1400
     23 C23        -7.7321    1.8557   51.7691 C.3     1  ZINC000750807956   -0.1800
     24 C24        -5.2549    2.1781   51.8095 C.3     1  ZINC000750807956   -0.1400
     25 C25        -6.2532    0.3389   50.4445 C.3     1  ZINC000750807956   -0.1800
     26 C26       -10.3554    0.5987   54.5092 C.3     1  ZINC000750807956   -0.1800
     27 C27       -11.4969   -0.1966   53.8724 C.3     1  ZINC000750807956   -0.1700
     28 C28       -11.7040    0.4905   55.2237 C.3     1  ZINC000750807956   -0.1800
     29 H29       -13.8981   -2.5020   56.2684 H       1  ZINC000750807956    0.0600
     30 H30       -14.5958   -4.1157   55.9898 H       1  ZINC000750807956    0.0800
     31 H31       -14.6815   -3.3762   57.6065 H       1  ZINC000750807956    0.0700
     32 H32       -12.9093   -5.1080   57.5128 H       1  ZINC000750807956    0.0700
     33 H33       -12.1259   -4.2339   56.1746 H       1  ZINC000750807956    0.0600
     34 H34       -11.7525   -1.8528   60.0404 H       1  ZINC000750807956    0.0800
     35 H35       -11.1335   -3.2489   60.9559 H       1  ZINC000750807956    0.0800
     36 H36       -10.7262   -1.1507   62.1971 H       1  ZINC000750807956    0.0800
     37 H37        -9.1860   -1.8862   61.6930 H       1  ZINC000750807956    0.0700
     38 H38       -10.6415    0.3538   60.2154 H       1  ZINC000750807956    0.0700
     39 H39        -9.2137    0.5641   61.2582 H       1  ZINC000750807956    0.0800
     40 H40        -8.6382    0.4221   58.8086 H       1  ZINC000750807956    0.0900
     41 H41        -7.8734   -0.8607   59.7817 H       1  ZINC000750807956    0.0800
     42 H42        -9.8134    0.7959   56.8983 H       1  ZINC000750807956    0.1200
     43 H43        -8.1446    0.1781   56.9424 H       1  ZINC000750807956    0.1100
     44 H44        -7.4489    1.0288   54.9769 H       1  ZINC000750807956    0.4000
     45 H45        -7.8217    2.4280   52.6923 H       1  ZINC000750807956    0.0600
     46 H46        -7.8058    2.5293   50.9153 H       1  ZINC000750807956    0.0700
     47 H47        -8.5329    1.1178   51.7198 H       1  ZINC000750807956    0.0900
     48 H48        -4.2908    1.6699   51.7891 H       1  ZINC000750807956    0.0700
     49 H49        -5.3286    2.8517   50.9558 H       1  ZINC000750807956    0.0800
     50 H50        -5.3444    2.7505   52.7328 H       1  ZINC000750807956    0.0700
     51 H51        -7.0540   -0.3990   50.3953 H       1  ZINC000750807956    0.0900
     52 H52        -6.3269    1.0126   49.5907 H       1  ZINC000750807956    0.0700
     53 H53        -5.2891   -0.1693   50.4240 H       1  ZINC000750807956    0.0600
     54 H54       -10.0990    1.5586   54.0607 H       1  ZINC000750807956    0.1100
     55 H55       -11.9917    0.2399   53.0048 H       1  ZINC000750807956    0.0900
     56 H56       -11.4120   -1.2833   53.8682 H       1  ZINC000750807956    0.0900
     57 H57       -11.7553   -0.1441   56.1084 H       1  ZINC000750807956    0.1200
     58 H58       -12.3349    1.3791   55.2450 H       1  ZINC000750807956    0.0900
@<TRIPOS>BOND
     1     1     2    1
     2     1    29    1
     3     1    30    1
     4     1    31    1
     5     2     3    1
     6     2    32    1
     7     2    33    1
     8     3     4    1
     9     4     5    2
    10     4     6    1
    11     6     7    1
    12     6    12    1
    13     6     8    1
    14     8     9    1
    15     8    34    1
    16     8    35    1
    17     9    10    1
    18     9    36    1
    19     9    37    1
    20    10    11    1
    21    10    38    1
    22    10    39    1
    23    11    12    1
    24    11    40    1
    25    11    41    1
    26    12    13   am
    27    13    14    2
    28    13    15    1
    29    15    16    1
    30    15    42    1
    31    15    43    1
    32    16    17    1
    33    16    18    1
    34    16    26    1
    35    18    19   am
    36    18    44    1
    37    19    20    2
    38    19    21    1
    39    21    22    1
    40    22    23    1
    41    22    24    1
    42    22    25    1
    43    23    45    1
    44    23    46    1
    45    23    47    1
    46    24    48    1
    47    24    49    1
    48    24    50    1
    49    25    51    1
    50    25    52    1
    51    25    53    1
    52    26    28    1
    53    26    27    1
    54    26    54    1
    55    27    28    1
    56    27    55    1
    57    27    56    1
    58    28    57    1
    59    28    58    1
@<TRIPOS>SUBSTRUCTURE
     1 ZINC000750807956        1 TEMP              0 ****  ****    0 ROOT


##########                                Name:    ZINC001105194920
##########                DOCK_Rotatable_Bonds:                   8
##########                         Heavy_Atoms:                  25
##########                    Molecular_Weight:             346.392
##########                DOCK_Rotatable_Bonds:                   8
##########                       Formal_Charge:          -0.0100007
##########                     HBond_Acceptors:                  10
##########                        HBond_Donors:                   3
##########                         Heavy_Atoms:                  25
##########                          Grid_Score:          -32.727940
##########                     Grid_vdw_energy:          -32.043972
##########                      Grid_es_energy:           -0.683968
##########           Internal_energy_repulsive:           11.588464

@<TRIPOS>MOLECULE
ZINC001105194920
 47 49 1 0 0
SMALL
USER_CHARGES


@<TRIPOS>ATOM
      1 C1         -7.7321    1.2660   58.3860 C.3     1  ZINC001105194920    0.0300
      2 O2         -7.8771    0.5174   57.1775 O.3     1  ZINC001105194920   -0.3900
      3 C3         -9.2242    0.1410   56.8850 C.3     1  ZINC001105194920    0.0700
      4 C4         -9.2614   -0.6400   55.5699 C.3     1  ZINC001105194920    0.0900
      5 H5         -8.7090   -1.5726   55.6854 H       1  ZINC001105194920    0.0900
      6 C6        -10.7138   -0.9497   55.2015 C.3     1  ZINC001105194920   -0.1800
      7 N7         -8.6469    0.1643   54.5051 N.3     1  ZINC001105194920   -0.6800
      8 C8         -8.5745   -0.5931   53.2485 C.3     1  ZINC001105194920    0.1400
      9 C9         -7.7163    0.1540   52.2604 C.2     1  ZINC001105194920   -0.0200
     10 C10        -7.5905    1.4972   52.1502 C.2     1  ZINC001105194920   -0.0200
     11 N11        -6.7220    1.7124   51.1352 N.pl3   1  ZINC001105194920   -0.2800
     12 C12        -6.2769    3.0208   50.6492 C.3     1  ZINC001105194920    0.1000
     13 C13        -5.0052    3.5403   51.3440 C.3     1  ZINC001105194920    0.1100
     14 N14        -4.2599    2.8609   50.2666 N.am    1  ZINC001105194920   -0.6300
     15 C15        -3.0139    2.3604   50.1503 C.2     1  ZINC001105194920    0.6200
     16 O16        -2.2406    2.4315   51.0856 O.2     1  ZINC001105194920   -0.5400
     17 C17        -2.5879    1.7256   48.8861 C.ar    1  ZINC001105194920   -0.0600
     18 N18        -2.9059    2.2797   47.7198 N.ar    1  ZINC001105194920   -0.3700
     19 C19        -2.5244    1.7109   46.5942 C.ar    1  ZINC001105194920   -0.0200
     20 C20        -1.7906    0.5336   46.6173 C.ar    1  ZINC001105194920    0.1500
     21 N21        -1.4678   -0.0285   47.7678 N.ar    1  ZINC001105194920   -0.5100
     22 C22        -1.8401    0.5369   48.9103 C.ar    1  ZINC001105194920    0.4200
     23 N23        -1.5037   -0.0481   50.1172 N.pl3   1  ZINC001105194920   -0.8100
     24 C24        -5.4269    2.9496   49.3676 C.3     1  ZINC001105194920    0.1100
     25 N25        -6.3538    0.5701   50.6703 N.2     1  ZINC001105194920   -0.0800
     26 N26        -6.9246   -0.3798   51.3236 N.2     1  ZINC001105194920   -0.2600
     27 H27        -8.0897    0.6715   59.2268 H       1  ZINC001105194920    0.0400
     28 H28        -6.6812    1.5131   58.5366 H       1  ZINC001105194920    0.0800
     29 H29        -8.3148    2.1845   58.3166 H       1  ZINC001105194920    0.0400
     30 H30        -9.6096   -0.4846   57.6901 H       1  ZINC001105194920    0.0600
     31 H31        -9.8398    1.0358   56.7937 H       1  ZINC001105194920    0.0500
     32 H32       -11.2660   -0.0170   55.0860 H       1  ZINC001105194920    0.0700
     33 H33       -10.7402   -1.5061   54.2646 H       1  ZINC001105194920    0.0500
     34 H34       -11.1696   -1.5465   55.9915 H       1  ZINC001105194920    0.0600
     35 H35        -9.1437    1.0330   54.3757 H       1  ZINC001105194920    0.3500
     36 H36        -8.1387   -1.5737   53.4398 H       1  ZINC001105194920    0.0900
     37 H37        -9.5775   -0.7147   52.8394 H       1  ZINC001105194920    0.0500
     38 H38        -8.0845    2.2464   52.7511 H       1  ZINC001105194920    0.1800
     39 H39        -7.0830    3.7530   50.6011 H       1  ZINC001105194920    0.1500
     40 H40        -4.9083    4.6259   51.3283 H       1  ZINC001105194920    0.1200
     41 H41        -4.8379    3.1113   52.3320 H       1  ZINC001105194920    0.1000
     42 H42        -2.7846    2.1633   45.6487 H       1  ZINC001105194920    0.1800
     43 H43        -1.4822    0.0744   45.6897 H       1  ZINC001105194920    0.1800
     44 H44        -0.9298   -0.8299   50.1340 H       1  ZINC001105194920    0.4000
     45 H45        -1.8417    0.3233   50.9471 H       1  ZINC001105194920    0.4300
     46 H46        -5.5964    2.0489   48.7776 H       1  ZINC001105194920    0.1100
     47 H47        -5.4539    3.8616   48.7713 H       1  ZINC001105194920    0.1200
@<TRIPOS>BOND
     1     1     2    1
     2     1    27    1
     3     1    28    1
     4     1    29    1
     5     2     3    1
     6     3     4    1
     7     3    30    1
     8     3    31    1
     9     4     5    1
    10     4     6    1
    11     4     7    1
    12     6    32    1
    13     6    33    1
    14     6    34    1
    15     7     8    1
    16     7    35    1
    17     8     9    1
    18     8    36    1
    19     8    37    1
    20     9    26    1
    21     9    10    2
    22    10    11    1
    23    10    38    1
    24    11    12    1
    25    11    25    1
    26    12    24    1
    27    12    13    1
    28    12    39    1
    29    13    14    1
    30    13    40    1
    31    13    41    1
    32    14    15   am
    33    14    24    1
    34    15    16    2
    35    15    17    1
    36    17    22   ar
    37    17    18   ar
    38    18    19   ar
    39    19    20   ar
    40    19    42    1
    41    20    21   ar
    42    20    43    1
    43    21    22   ar
    44    22    23    1
    45    23    44    1
    46    23    45    1
    47    24    46    1
    48    24    47    1
    49    25    26    2
@<TRIPOS>SUBSTRUCTURE
     1 ZINC001105194920        1 TEMP              0 ****  ****    0 ROOT


##########                                Name:    ZINC001490207225
##########                DOCK_Rotatable_Bonds:                   7
##########                         Heavy_Atoms:                  24
##########                    Molecular_Weight:             334.378
##########                DOCK_Rotatable_Bonds:                   7
##########                       Formal_Charge:           -0.010001
##########                     HBond_Acceptors:                   9
##########                        HBond_Donors:                   3
##########                         Heavy_Atoms:                  24
##########                          Grid_Score:          -32.726315
##########                     Grid_vdw_energy:          -29.755257
##########                      Grid_es_energy:           -2.971058
##########           Internal_energy_repulsive:            8.210844

@<TRIPOS>MOLECULE
ZINC001490207225
 46 48 1 0 0
SMALL
USER_CHARGES


@<TRIPOS>ATOM
      1 C1         -7.6802   -1.0331   51.6167 C.3     1  ZINC001490207225    0.0900
      2 N2         -6.7904    0.0531   52.0348 N.pl3   1  ZINC001490207225   -0.3600
      3 C3         -6.1029    0.8637   51.2147 C.2     1  ZINC001490207225    0.1300
      4 C4         -5.3916    1.7443   52.0048 C.2     1  ZINC001490207225   -0.3000
      5 C5         -4.4961    2.8163   51.5331 C.2     1  ZINC001490207225    0.6200
      6 O6         -4.5739    3.9298   52.0155 O.2     1  ZINC001490207225   -0.5400
      7 N7         -3.5912    2.5621   50.5671 N.am    1  ZINC001490207225   -0.6200
      8 C8         -3.3753    1.2784   49.8797 C.3     1  ZINC001490207225    0.1100
      9 C9         -1.8810    1.2234   49.5219 C.3     1  ZINC001490207225   -0.1100
     10 H10        -1.3234    0.5682   50.1913 H       1  ZINC001490207225    0.1000
     11 C11        -1.7313    0.8056   48.0439 C.3     1  ZINC001490207225    0.1000
     12 N12        -0.6952    1.7134   47.4995 N.am    1  ZINC001490207225   -0.6200
     13 C13         0.2982    1.4130   46.6398 C.2     1  ZINC001490207225    0.5300
     14 O14         1.0747    2.2747   46.2854 O.2     1  ZINC001490207225   -0.5300
     15 C15         0.4444    0.0066   46.1188 C.3     1  ZINC001490207225    0.1200
     16 N16        -0.6192   -0.2683   45.1495 N.am    1  ZINC001490207225   -0.7400
     17 C17        -0.4281    0.0053   43.8437 C.2     1  ZINC001490207225    0.7100
     18 N18        -1.4060   -0.2490   42.9518 N.am    1  ZINC001490207225   -0.8600
     19 O19         0.6265    0.4814   43.4703 O.2     1  ZINC001490207225   -0.5900
     20 C20        -0.9989    3.0261   48.1144 C.3     1  ZINC001490207225    0.1100
     21 C21        -1.3890    2.6922   49.5961 C.3     1  ZINC001490207225   -0.0800
     22 C22        -0.2164    2.8920   50.5584 C.3     1  ZINC001490207225   -0.1300
     23 C23        -2.6302    3.5154   49.9888 C.3     1  ZINC001490207225    0.1000
     24 C24        -5.6829    1.4262   53.3502 C.2     1  ZINC001490207225    0.0700
     25 N25        -6.5185    0.4244   53.3563 N.2     1  ZINC001490207225   -0.2900
     26 H26        -8.6915   -0.6465   51.4917 H       1  ZINC001490207225    0.0800
     27 H27        -7.3296   -1.4461   50.6708 H       1  ZINC001490207225    0.0900
     28 H28        -7.6811   -1.8147   52.3764 H       1  ZINC001490207225    0.1000
     29 H29        -6.1056    0.8326   50.1350 H       1  ZINC001490207225    0.1900
     30 H30        -3.6320    0.4516   50.5420 H       1  ZINC001490207225    0.0900
     31 H31        -3.9789    1.2334   48.9732 H       1  ZINC001490207225    0.0800
     32 H32        -1.4025   -0.2312   47.9737 H       1  ZINC001490207225    0.0900
     33 H33        -2.6734    0.9430   47.5131 H       1  ZINC001490207225    0.0900
     34 H34         1.4147   -0.1025   45.6342 H       1  ZINC001490207225    0.1000
     35 H35         0.3712   -0.6974   46.9479 H       1  ZINC001490207225    0.1000
     36 H36        -1.4610   -0.6469   45.4476 H       1  ZINC001490207225    0.4100
     37 H37        -1.2680   -0.0531   42.0118 H       1  ZINC001490207225    0.4000
     38 H38        -2.2478   -0.6276   43.2498 H       1  ZINC001490207225    0.4200
     39 H39        -0.1171    3.6666   48.0975 H       1  ZINC001490207225    0.0900
     40 H40        -1.8280    3.5063   47.5946 H       1  ZINC001490207225    0.0800
     41 H41         0.1009    3.9346   50.5330 H       1  ZINC001490207225    0.0700
     42 H42        -0.5280    2.6316   51.5699 H       1  ZINC001490207225    0.0600
     43 H43         0.6134    2.2524   50.2578 H       1  ZINC001490207225    0.0600
     44 H44        -3.0691    3.9759   49.1038 H       1  ZINC001490207225    0.0800
     45 H45        -2.3565    4.2826   50.7132 H       1  ZINC001490207225    0.0900
     46 H46        -5.2866    1.9273   54.2210 H       1  ZINC001490207225    0.2000
@<TRIPOS>BOND
     1     1     2    1
     2     1    26    1
     3     1    27    1
     4     1    28    1
     5     2    25    1
     6     2     3    1
     7     3     4    2
     8     3    29    1
     9     4     5    1
    10     4    24    1
    11     5     6    2
    12     5     7   am
    13     7    23    1
    14     7     8    1
    15     8     9    1
    16     8    30    1
    17     8    31    1
    18     9    10    1
    19     9    21    1
    20     9    11    1
    21    11    12    1
    22    11    32    1
    23    11    33    1
    24    12    13   am
    25    12    20    1
    26    13    14    2
    27    13    15    1
    28    15    16    1
    29    15    34    1
    30    15    35    1
    31    16    17   am
    32    16    36    1
    33    17    18   am
    34    17    19    2
    35    18    37    1
    36    18    38    1
    37    20    21    1
    38    20    39    1
    39    20    40    1
    40    21    22    1
    41    21    23    1
    42    22    41    1
    43    22    42    1
    44    22    43    1
    45    23    44    1
    46    23    45    1
    47    24    25    2
    48    24    46    1
@<TRIPOS>SUBSTRUCTURE
     1 ZINC001490207225        1 TEMP              0 ****  ****    0 ROOT


##########                                Name:    ZINC000066361645
##########                DOCK_Rotatable_Bonds:                   8
##########                         Heavy_Atoms:                  27
##########                    Molecular_Weight:             392.519
##########                DOCK_Rotatable_Bonds:                   8
##########                       Formal_Charge:           0.0100004
##########                     HBond_Acceptors:                   7
##########                        HBond_Donors:                   2
##########                         Heavy_Atoms:                  27
##########                          Grid_Score:          -32.719635
##########                     Grid_vdw_energy:          -33.077820
##########                      Grid_es_energy:            0.358183
##########           Internal_energy_repulsive:            8.116367

@<TRIPOS>MOLECULE
ZINC000066361645
 55 57 1 0 0
SMALL
USER_CHARGES


@<TRIPOS>ATOM
      1 C1        -10.4418   -0.3814   52.2436 C.3     1  ZINC000066361645   -0.1400
      2 S2         -8.6988   -0.8697   52.3607 S.3     1  ZINC000066361645   -0.1100
      3 C3         -8.1241    0.0432   53.7538 C.ar    1  ZINC000066361645   -0.1200
      4 C4         -8.7475   -0.1015   54.9842 C.ar    1  ZINC000066361645   -0.1100
      5 C5         -8.2953    0.6162   56.0820 C.ar    1  ZINC000066361645    0.0500
      6 C6         -7.2152    1.4803   55.9499 C.ar    1  ZINC000066361645    0.0700
      7 C7         -6.5913    1.6278   54.7196 C.ar    1  ZINC000066361645   -0.1100
      8 C8         -7.0381    0.9081   53.6226 C.ar    1  ZINC000066361645    0.1800
      9 N9         -6.4058    1.0580   52.3791 N.am    1  ZINC000066361645   -0.6600
     10 C10        -6.5986    2.1788   51.6558 C.2     1  ZINC000066361645    0.5100
     11 O11        -7.3189    3.0579   52.0799 O.2     1  ZINC000066361645   -0.5000
     12 C12        -5.9195    2.3398   50.3202 C.3     1  ZINC000066361645   -0.1500
     13 C13        -4.4058    2.4273   50.5250 C.3     1  ZINC000066361645    0.1600
     14 H14        -4.1025    1.7226   51.2992 H       1  ZINC000066361645    0.1000
     15 C15        -4.0302    3.8475   50.9527 C.3     1  ZINC000066361645   -0.1600
     16 N16        -3.7236    2.0985   49.2709 N.am    1  ZINC000066361645   -0.7200
     17 C17        -2.5173    1.4979   49.2973 C.2     1  ZINC000066361645    0.5300
     18 O18        -1.9972    1.2285   50.3593 O.2     1  ZINC000066361645   -0.5400
     19 C19        -1.8148    1.1613   48.0073 C.3     1  ZINC000066361645   -0.1100
     20 C20        -2.4307    1.9712   46.8648 C.3     1  ZINC000066361645   -0.1100
     21 C21        -1.7174    1.6295   45.5551 C.3     1  ZINC000066361645   -0.1200
     22 C22        -0.2314    1.9717   45.6793 C.3     1  ZINC000066361645   -0.1200
     23 C23         0.3846    1.1617   46.8219 C.3     1  ZINC000066361645   -0.1200
     24 C24        -0.3286    1.5035   48.1317 C.3     1  ZINC000066361645   -0.1000
     25 O25        -6.7535    2.1868   57.0195 O.3     1  ZINC000066361645   -0.3000
     26 C26        -7.6313    2.2985   58.1448 C.3     1  ZINC000066361645    0.0200
     27 C27        -8.2114    0.9089   58.4412 C.3     1  ZINC000066361645    0.0200
     28 O28        -8.9227    0.4637   57.2812 O.3     1  ZINC000066361645   -0.3100
     29 H29       -10.9579   -0.6532   53.1644 H       1  ZINC000066361645    0.0900
     30 H30       -10.5080    0.6964   52.0945 H       1  ZINC000066361645    0.0900
     31 H31       -10.9070   -0.8938   51.4015 H       1  ZINC000066361645    0.1100
     32 H32        -9.5864   -0.7738   55.0878 H       1  ZINC000066361645    0.1400
     33 H33        -5.7536    2.3016   54.6173 H       1  ZINC000066361645    0.1600
     34 H34        -5.8299    0.3551   52.0399 H       1  ZINC000066361645    0.4100
     35 H35        -6.1517    1.4824   49.6887 H       1  ZINC000066361645    0.1000
     36 H36        -6.2744    3.2516   49.8398 H       1  ZINC000066361645    0.1200
     37 H37        -4.3335    4.5523   50.1784 H       1  ZINC000066361645    0.0600
     38 H38        -4.5378    4.0922   51.8857 H       1  ZINC000066361645    0.0700
     39 H39        -2.9518    3.9099   51.0985 H       1  ZINC000066361645    0.0700
     40 H40        -4.1400    2.3129   48.4215 H       1  ZINC000066361645    0.4000
     41 H41        -1.9264    0.0971   47.7997 H       1  ZINC000066361645    0.1000
     42 H42        -3.4894    1.7275   46.7761 H       1  ZINC000066361645    0.0600
     43 H43        -2.3190    3.0355   47.0723 H       1  ZINC000066361645    0.0700
     44 H44        -1.8291    0.5653   45.3475 H       1  ZINC000066361645    0.0600
     45 H45        -2.1562    2.2065   44.7410 H       1  ZINC000066361645    0.0700
     46 H46         0.2767    1.7282   44.7462 H       1  ZINC000066361645    0.0600
     47 H47        -0.1196    3.0358   45.8869 H       1  ZINC000066361645    0.0600
     48 H48         0.2729    0.0975   46.6142 H       1  ZINC000066361645    0.0600
     49 H49         1.4434    1.4054   46.9105 H       1  ZINC000066361645    0.0700
     50 H50        -0.2170    2.5677   48.3392 H       1  ZINC000066361645    0.0700
     51 H51         0.1102    0.9264   48.9456 H       1  ZINC000066361645    0.0700
     52 H52        -7.0751    2.6569   59.0109 H       1  ZINC000066361645    0.1300
     53 H53        -8.4394    2.9924   57.9133 H       1  ZINC000066361645    0.0800
     54 H54        -7.4030    0.2134   58.6662 H       1  ZINC000066361645    0.0800
     55 H55        -8.8929    0.9684   59.2899 H       1  ZINC000066361645    0.1200
@<TRIPOS>BOND
     1     1     2    1
     2     1    29    1
     3     1    30    1
     4     1    31    1
     5     2     3    1
     6     3     8   ar
     7     3     4   ar
     8     4     5   ar
     9     4    32    1
    10     5    28    1
    11     5     6   ar
    12     6     7   ar
    13     6    25    1
    14     7     8   ar
    15     7    33    1
    16     8     9    1
    17     9    10   am
    18     9    34    1
    19    10    11    2
    20    10    12    1
    21    12    13    1
    22    12    35    1
    23    12    36    1
    24    13    14    1
    25    13    15    1
    26    13    16    1
    27    15    37    1
    28    15    38    1
    29    15    39    1
    30    16    17   am
    31    16    40    1
    32    17    18    2
    33    17    19    1
    34    19    24    1
    35    19    20    1
    36    19    41    1
    37    20    21    1
    38    20    42    1
    39    20    43    1
    40    21    22    1
    41    21    44    1
    42    21    45    1
    43    22    23    1
    44    22    46    1
    45    22    47    1
    46    23    24    1
    47    23    48    1
    48    23    49    1
    49    24    50    1
    50    24    51    1
    51    25    26    1
    52    26    27    1
    53    26    52    1
    54    26    53    1
    55    27    28    1
    56    27    54    1
    57    27    55    1
@<TRIPOS>SUBSTRUCTURE
     1 ZINC000066361645        1 TEMP              0 ****  ****    0 ROOT


##########                                Name:    ZINC000547864253
##########                DOCK_Rotatable_Bonds:                   6
##########                         Heavy_Atoms:                  30
##########                    Molecular_Weight:             422.548
##########                DOCK_Rotatable_Bonds:                   6
##########                       Formal_Charge:           0.0300002
##########                     HBond_Acceptors:                   6
##########                        HBond_Donors:                   2
##########                         Heavy_Atoms:                  30
##########                          Grid_Score:          -32.708935
##########                     Grid_vdw_energy:          -31.498882
##########                      Grid_es_energy:           -1.210051
##########           Internal_energy_repulsive:           11.046990

@<TRIPOS>MOLECULE
ZINC000547864253
 56 60 1 0 0
SMALL
USER_CHARGES


@<TRIPOS>ATOM
      1 O1         -5.7539    2.3834   48.7017 O.2     1  ZINC000547864253   -0.5300
      2 C2         -5.0460    2.6751   49.6423 C.2     1  ZINC000547864253    0.5400
      3 N3         -3.7116    2.5037   49.5601 N.am    1  ZINC000547864253   -0.7200
      4 C4         -3.1171    1.9593   48.3368 C.3     1  ZINC000547864253    0.1300
      5 C5         -1.6771    2.4590   48.2037 C.3     1  ZINC000547864253    0.0200
      6 H6         -1.6644    3.5478   48.2529 H       1  ZINC000547864253    0.0900
      7 C7         -0.8440    1.8957   49.3260 C.2     1  ZINC000547864253   -0.1600
      8 C8         -0.9488    0.6685   49.8598 C.2     1  ZINC000547864253    0.0600
      9 N9         -0.0263    0.5139   50.8586 N.pl3   1  ZINC000547864253   -0.5900
     10 C10         0.7133    1.6672   50.9954 C.ar    1  ZINC000547864253    0.1000
     11 C11         1.7546    2.0428   51.8374 C.ar    1  ZINC000547864253   -0.1300
     12 C12         2.3023    3.3025   51.7285 C.ar    1  ZINC000547864253   -0.1000
     13 C13         1.8255    4.2025   50.7858 C.ar    1  ZINC000547864253   -0.1400
     14 C14         0.8032    3.8544   49.9483 C.ar    1  ZINC000547864253   -0.0700
     15 C15         0.2378    2.5811   50.0371 C.ar    1  ZINC000547864253   -0.1000
     16 C16        -1.1095    2.0093   46.8821 C.ar    1  ZINC000547864253   -0.0700
     17 C17        -0.2883    2.8542   46.1592 C.ar    1  ZINC000547864253   -0.1100
     18 C18         0.2324    2.4417   44.9469 C.ar    1  ZINC000547864253   -0.1200
     19 C19        -0.0678    1.1841   44.4577 C.ar    1  ZINC000547864253   -0.1200
     20 C20        -0.8883    0.3388   45.1811 C.ar    1  ZINC000547864253   -0.1100
     21 C21        -1.4054    0.7498   46.3954 C.ar    1  ZINC000547864253   -0.1200
     22 C22        -5.6577    3.2350   50.9007 C.3     1  ZINC000547864253   -0.1700
     23 H23        -6.0140    4.2629   50.8330 H       1  ZINC000547864253    0.1400
     24 C24        -5.0681    2.7782   52.2363 C.3     1  ZINC000547864253   -0.1300
     25 C25        -6.4440    2.2715   51.7938 C.3     1  ZINC000547864253   -0.1400
     26 C26        -7.6670    2.8293   52.5229 C.3     1  ZINC000547864253   -0.0700
     27 C27        -7.8638    2.0843   53.8449 C.3     1  ZINC000547864253   -0.6000
     28 S28        -8.1382    0.3225   53.5025 S.o2    1  ZINC000547864253    2.4200
     29 O29        -8.1150   -0.3881   54.7328 O.2     1  ZINC000547864253   -0.9400
     30 O30        -9.2669    0.1964   52.6485 O.2     1  ZINC000547864253   -0.9300
     31 C31        -6.6455   -0.1014   52.5597 C.3     1  ZINC000547864253   -0.6000
     32 C32        -6.5443    0.8151   51.3384 C.3     1  ZINC000547864253   -0.0700
     33 H33        -3.1451    2.7407   50.3109 H       1  ZINC000547864253    0.4000
     34 H34        -3.1209    0.8705   48.3843 H       1  ZINC000547864253    0.0800
     35 H35        -3.6967    2.2875   47.4740 H       1  ZINC000547864253    0.0700
     36 H36        -1.6565   -0.0852   49.5474 H       1  ZINC000547864253    0.1700
     37 H37         0.0893   -0.2887   51.3910 H       1  ZINC000547864253    0.4200
     38 H38         2.1324    1.3497   52.5745 H       1  ZINC000547864253    0.1200
     39 H39         3.1106    3.5925   52.3835 H       1  ZINC000547864253    0.1300
     40 H40         2.2657    5.1862   50.7137 H       1  ZINC000547864253    0.1200
     41 H41         0.4373    4.5601   49.2173 H       1  ZINC000547864253    0.1200
     42 H42        -0.0538    3.8368   46.5413 H       1  ZINC000547864253    0.1200
     43 H43         0.8734    3.1021   44.3817 H       1  ZINC000547864253    0.1200
     44 H44         0.3384    0.8621   43.5103 H       1  ZINC000547864253    0.1200
     45 H45        -1.1230   -0.6436   44.7988 H       1  ZINC000547864253    0.1200
     46 H46        -2.0464    0.0893   46.9606 H       1  ZINC000547864253    0.1200
     47 H47        -4.2378    2.0727   52.2050 H       1  ZINC000547864253    0.1100
     48 H48        -5.0368    3.5055   53.0476 H       1  ZINC000547864253    0.1100
     49 H49        -7.5173    3.8902   52.7233 H       1  ZINC000547864253    0.0900
     50 H50        -8.5514    2.7003   51.8988 H       1  ZINC000547864253    0.0900
     51 H51        -6.9745    2.2006   54.4642 H       1  ZINC000547864253    0.1400
     52 H52        -8.7287    2.4926   54.3678 H       1  ZINC000547864253    0.1400
     53 H53        -5.7664    0.0332   53.1898 H       1  ZINC000547864253    0.1400
     54 H54        -6.7043   -1.1394   52.2322 H       1  ZINC000547864253    0.1400
     55 H55        -7.4308    0.6897   50.7167 H       1  ZINC000547864253    0.0900
     56 H56        -5.6574    0.5535   50.7614 H       1  ZINC000547864253    0.0900
@<TRIPOS>BOND
     1     1     2    2
     2     2     3   am
     3     2    22    1
     4     3     4    1
     5     3    33    1
     6     4     5    1
     7     4    34    1
     8     4    35    1
     9     5     6    1
    10     5     7    1
    11     5    16    1
    12     7    15    1
    13     7     8    2
    14     8     9    1
    15     8    36    1
    16     9    10    1
    17     9    37    1
    18    10    15   ar
    19    10    11   ar
    20    11    12   ar
    21    11    38    1
    22    12    13   ar
    23    12    39    1
    24    13    14   ar
    25    13    40    1
    26    14    15   ar
    27    14    41    1
    28    16    21   ar
    29    16    17   ar
    30    17    18   ar
    31    17    42    1
    32    18    19   ar
    33    18    43    1
    34    19    20   ar
    35    19    44    1
    36    20    21   ar
    37    20    45    1
    38    21    46    1
    39    22    23    1
    40    22    25    1
    41    22    24    1
    42    24    25    1
    43    24    47    1
    44    24    48    1
    45    25    32    1
    46    25    26    1
    47    26    27    1
    48    26    49    1
    49    26    50    1
    50    27    28    1
    51    27    51    1
    52    27    52    1
    53    28    29    2
    54    28    30    2
    55    28    31    1
    56    31    32    1
    57    31    53    1
    58    31    54    1
    59    32    55    1
    60    32    56    1
@<TRIPOS>SUBSTRUCTURE
     1 ZINC000547864253        1 TEMP              0 ****  ****    0 ROOT


##########                                Name:    ZINC000489986384
##########                DOCK_Rotatable_Bonds:                  11
##########                         Heavy_Atoms:                  31
##########                    Molecular_Weight:             415.492
##########                DOCK_Rotatable_Bonds:                  11
##########                       Formal_Charge:          -0.0499997
##########                     HBond_Acceptors:                   6
##########                        HBond_Donors:                   2
##########                         Heavy_Atoms:                  31
##########                          Grid_Score:          -32.690979
##########                     Grid_vdw_energy:          -29.037706
##########                      Grid_es_energy:           -3.653275
##########           Internal_energy_repulsive:           13.590254

@<TRIPOS>MOLECULE
ZINC000489986384
 56 59 1 0 0
SMALL
USER_CHARGES


@<TRIPOS>ATOM
      1 O1         -0.8427    3.0153   51.0502 O.2     1  ZINC000489986384   -0.5000
      2 C2         -0.4842    1.8610   50.9500 C.2     1  ZINC000489986384    0.4900
      3 C3         -1.4334    0.8213   50.4123 C.3     1  ZINC000489986384    0.0900
      4 N4         -2.0162    1.2958   49.1548 N.pl3   1  ZINC000489986384   -0.4700
      5 C5         -1.3708    1.3900   47.9379 C.ar    1  ZINC000489986384    0.0700
      6 C6         -0.0844    1.1059   47.5015 C.ar    1  ZINC000489986384   -0.1100
      7 C7          0.2515    1.3185   46.1810 C.ar    1  ZINC000489986384   -0.0900
      8 C8         -0.6873    1.8143   45.2879 C.ar    1  ZINC000489986384   -0.1300
      9 C9         -1.9583    2.1002   45.6998 C.ar    1  ZINC000489986384   -0.0600
     10 C10        -2.3215    1.8919   47.0326 C.ar    1  ZINC000489986384    0.0500
     11 N11        -3.4727    2.0744   47.7291 N.2     1  ZINC000489986384   -0.4600
     12 C12        -3.2953    1.7197   48.9682 C.2     1  ZINC000489986384    0.2800
     13 C13        -4.3499    1.7805   50.0430 C.3     1  ZINC000489986384    0.1400
     14 O14        -5.5494    2.3382   49.5025 O.3     1  ZINC000489986384   -0.3000
     15 C15        -6.5950    2.4976   50.3559 C.ar    1  ZINC000489986384    0.1300
     16 C16        -7.7266    3.1880   49.9470 C.ar    1  ZINC000489986384   -0.2100
     17 C17        -8.7883    3.3481   50.8163 C.ar    1  ZINC000489986384   -0.0800
     18 C18        -8.7235    2.8215   52.0930 C.ar    1  ZINC000489986384   -0.1600
     19 C19        -7.5965    2.1334   52.5031 C.ar    1  ZINC000489986384   -0.0800
     20 C20        -6.5347    1.9652   51.6356 C.ar    1  ZINC000489986384   -0.1500
     21 N21         0.7648    1.5091   51.3142 N.am    1  ZINC000489986384   -0.7300
     22 C22         1.6875    2.5199   51.8369 C.3     1  ZINC000489986384    0.1300
     23 C23         2.6021    1.8822   52.8846 C.3     1  ZINC000489986384   -0.0600
     24 H24         2.0542    1.1088   53.4229 H       1  ZINC000489986384    0.0900
     25 C25         3.8151    1.2590   52.1911 C.3     1  ZINC000489986384    0.0800
     26 O26         3.5478   -0.1161   51.9083 O.3     1  ZINC000489986384   -0.5700
     27 C27         3.0658    2.9374   53.8555 C.ar    1  ZINC000489986384   -0.0700
     28 C28         3.3535    2.5947   55.1634 C.ar    1  ZINC000489986384   -0.1100
     29 C29         3.7789    3.5627   56.0540 C.ar    1  ZINC000489986384   -0.1200
     30 C30         3.9168    4.8732   55.6366 C.ar    1  ZINC000489986384   -0.1200
     31 C31         3.6299    5.2158   54.3284 C.ar    1  ZINC000489986384   -0.1200
     32 C32         3.2088    4.2471   53.4367 C.ar    1  ZINC000489986384   -0.1100
     33 H33        -0.8917   -0.1077   50.2339 H       1  ZINC000489986384    0.1200
     34 H34        -2.2280    0.6450   51.1373 H       1  ZINC000489986384    0.1200
     35 H35         0.6504    0.7203   48.1928 H       1  ZINC000489986384    0.1200
     36 H36         1.2521    1.0979   45.8400 H       1  ZINC000489986384    0.1300
     37 H37        -0.4104    1.9764   44.2566 H       1  ZINC000489986384    0.1300
     38 H38        -2.6809    2.4865   44.9963 H       1  ZINC000489986384    0.1300
     39 H39        -4.5509    0.7748   50.4122 H       1  ZINC000489986384    0.0800
     40 H40        -3.9967    2.4049   50.8637 H       1  ZINC000489986384    0.1000
     41 H41        -7.7774    3.6001   48.9500 H       1  ZINC000489986384    0.1300
     42 H42        -9.6695    3.8856   50.4984 H       1  ZINC000489986384    0.1300
     43 H43        -9.5544    2.9481   52.7712 H       1  ZINC000489986384    0.1200
     44 H44        -7.5482    1.7232   53.5010 H       1  ZINC000489986384    0.1300
     45 H45        -5.6547    1.4275   51.9564 H       1  ZINC000489986384    0.1300
     46 H46         1.0527    0.5866   51.2303 H       1  ZINC000489986384    0.4000
     47 H47         2.2913    2.9172   51.0211 H       1  ZINC000489986384    0.0800
     48 H48         1.1186    3.3288   52.2953 H       1  ZINC000489986384    0.0800
     49 H49         4.0136    1.7894   51.2598 H       1  ZINC000489986384    0.0500
     50 H50         4.6848    1.3332   52.8439 H       1  ZINC000489986384    0.0500
     51 H51         2.7850   -0.2578   51.3310 H       1  ZINC000489986384    0.3800
     52 H52         3.2457    1.5708   55.4895 H       1  ZINC000489986384    0.1200
     53 H53         4.0030    3.2950   57.0760 H       1  ZINC000489986384    0.1200
     54 H54         4.2485    5.6295   56.3325 H       1  ZINC000489986384    0.1200
     55 H55         3.7375    6.2397   54.0024 H       1  ZINC000489986384    0.1200
     56 H56         2.9847    4.5148   52.4147 H       1  ZINC000489986384    0.1200
@<TRIPOS>BOND
     1     1     2    2
     2     2     3    1
     3     2    21   am
     4     3     4    1
     5     3    33    1
     6     3    34    1
     7     4    12    1
     8     4     5    1
     9     5    10   ar
    10     5     6   ar
    11     6     7   ar
    12     6    35    1
    13     7     8   ar
    14     7    36    1
    15     8     9   ar
    16     8    37    1
    17     9    10   ar
    18     9    38    1
    19    10    11    1
    20    11    12    2
    21    12    13    1
    22    13    14    1
    23    13    39    1
    24    13    40    1
    25    14    15    1
    26    15    20   ar
    27    15    16   ar
    28    16    17   ar
    29    16    41    1
    30    17    18   ar
    31    17    42    1
    32    18    19   ar
    33    18    43    1
    34    19    20   ar
    35    19    44    1
    36    20    45    1
    37    21    22    1
    38    21    46    1
    39    22    23    1
    40    22    47    1
    41    22    48    1
    42    23    24    1
    43    23    25    1
    44    23    27    1
    45    25    26    1
    46    25    49    1
    47    25    50    1
    48    26    51    1
    49    27    32   ar
    50    27    28   ar
    51    28    29   ar
    52    28    52    1
    53    29    30   ar
    54    29    53    1
    55    30    31   ar
    56    30    54    1
    57    31    32   ar
    58    31    55    1
    59    32    56    1
@<TRIPOS>SUBSTRUCTURE
     1 ZINC000489986384        1 TEMP              0 ****  ****    0 ROOT


##########                                Name:    ZINC000269356812
##########                DOCK_Rotatable_Bonds:                  10
##########                         Heavy_Atoms:                  25
##########                    Molecular_Weight:             387.431
##########                DOCK_Rotatable_Bonds:                  10
##########                       Formal_Charge:          0.00999978
##########                     HBond_Acceptors:                  10
##########                        HBond_Donors:                   3
##########                         Heavy_Atoms:                  25
##########                          Grid_Score:          -32.683201
##########                     Grid_vdw_energy:          -29.846872
##########                      Grid_es_energy:           -2.836329
##########           Internal_energy_repulsive:            7.871612

@<TRIPOS>MOLECULE
ZINC000269356812
 40 41 1 0 0
SMALL
USER_CHARGES


@<TRIPOS>ATOM
      1 C1         -1.0584    1.6493   49.8843 C.3     1  ZINC000269356812   -0.1400
      2 C2         -1.6730    1.0906   48.5994 C.3     1  ZINC000269356812    0.2000
      3 O3         -1.8570   -0.3201   48.7336 O.3     1  ZINC000269356812   -0.5400
      4 C4         -3.0259    1.7598   48.3483 C.3     1  ZINC000269356812    0.0900
      5 N5         -3.9340    1.4565   49.4571 N.am    1  ZINC000269356812   -0.6900
      6 C6         -5.0115    2.2353   49.6780 C.2     1  ZINC000269356812    0.5100
      7 O7         -5.2286    3.1888   48.9593 O.2     1  ZINC000269356812   -0.5100
      8 C8         -5.9382    1.9251   50.8072 C.2     1  ZINC000269356812    0.5100
      9 O9         -6.8978    2.6380   51.0181 O.2     1  ZINC000269356812   -0.4900
     10 N10        -5.7089    0.8538   51.5921 N.am    1  ZINC000269356812   -0.6400
     11 C11        -6.5772    0.5631   52.6501 C.ar    1  ZINC000269356812    0.0900
     12 C12        -6.3819    1.1433   53.9033 C.ar    1  ZINC000269356812   -0.0600
     13 C13        -7.2643    0.8282   54.9195 C.ar    1  ZINC000269356812   -0.1200
     14 C14        -8.3111   -0.0515   54.6606 C.ar    1  ZINC000269356812    0.1000
     15 S15        -9.4432   -0.4610   55.9471 S.3     1  ZINC000269356812   -0.0600
     16 C16       -10.2364   -1.9701   55.3277 C.3     1  ZINC000269356812    0.2900
     17 F17       -10.6705   -2.7459   56.4080 F       1  ZINC000269356812   -0.1700
     18 F18       -11.3330   -1.6269   54.5296 F       1  ZINC000269356812   -0.1700
     19 N19        -8.4662   -0.5839   53.4578 N.ar    1  ZINC000269356812   -0.4600
     20 C20        -7.6464   -0.3013   52.4639 C.ar    1  ZINC000269356812    0.1100
     21 C21        -0.7520    1.3691   47.4397 C.2     1  ZINC000269356812   -0.2300
     22 C22         0.5774    1.4487   47.5154 C.2     1  ZINC000269356812   -0.1100
     23 C23         1.2152    1.7141   46.3159 C.2     1  ZINC000269356812   -0.1400
     24 C24         0.4038    1.8498   45.2659 C.2     1  ZINC000269356812   -0.2000
     25 S25        -1.2647    1.6310   45.7778 S.3     1  ZINC000269356812    0.1100
     26 H26        -0.0946    1.1726   50.0633 H       1  ZINC000269356812    0.0800
     27 H27        -0.9181    2.7254   49.7820 H       1  ZINC000269356812    0.0800
     28 H28        -1.7246    1.4479   50.7233 H       1  ZINC000269356812    0.0700
     29 H29        -1.0442   -0.8060   48.9291 H       1  ZINC000269356812    0.3800
     30 H30        -2.8895    2.8388   48.2751 H       1  ZINC000269356812    0.0900
     31 H31        -3.4503    1.3832   47.4176 H       1  ZINC000269356812    0.0900
     32 H32        -3.7598    0.6950   50.0323 H       1  ZINC000269356812    0.4200
     33 H33        -4.9420    0.2842   51.4236 H       1  ZINC000269356812    0.4300
     34 H34        -5.5603    1.8227   54.0757 H       1  ZINC000269356812    0.1600
     35 H35        -7.1426    1.2590   55.9024 H       1  ZINC000269356812    0.1500
     36 H36        -9.5204   -2.5402   54.7356 H       1  ZINC000269356812    0.1500
     37 H37        -7.8041   -0.7548   51.4964 H       1  ZINC000269356812    0.1700
     38 H38         1.1154    1.3168   48.4426 H       1  ZINC000269356812    0.1500
     39 H39         2.2885    1.8047   46.2362 H       1  ZINC000269356812    0.1400
     40 H40         0.7228    2.0584   44.2554 H       1  ZINC000269356812    0.1700
@<TRIPOS>BOND
     1     1     2    1
     2     1    26    1
     3     1    27    1
     4     1    28    1
     5     2     3    1
     6     2     4    1
     7     2    21    1
     8     3    29    1
     9     4     5    1
    10     4    30    1
    11     4    31    1
    12     5     6   am
    13     5    32    1
    14     6     7    2
    15     6     8    1
    16     8     9    2
    17     8    10   am
    18    10    11    1
    19    10    33    1
    20    11    20   ar
    21    11    12   ar
    22    12    13   ar
    23    12    34    1
    24    13    14   ar
    25    13    35    1
    26    14    15    1
    27    14    19   ar
    28    15    16    1
    29    16    17    1
    30    16    18    1
    31    16    36    1
    32    19    20   ar
    33    20    37    1
    34    21    25    1
    35    21    22    2
    36    22    23    1
    37    22    38    1
    38    23    24    2
    39    23    39    1
    40    24    25    1
    41    24    40    1
@<TRIPOS>SUBSTRUCTURE
     1 ZINC000269356812        1 TEMP              0 ****  ****    0 ROOT


##########                                Name:    ZINC001083519372
##########                DOCK_Rotatable_Bonds:                   7
##########                         Heavy_Atoms:                  27
##########                    Molecular_Weight:             370.411
##########                DOCK_Rotatable_Bonds:                   7
##########                       Formal_Charge:           0.0399996
##########                     HBond_Acceptors:                   9
##########                        HBond_Donors:                   2
##########                         Heavy_Atoms:                  27
##########                          Grid_Score:          -32.680321
##########                     Grid_vdw_energy:          -30.364012
##########                      Grid_es_energy:           -2.316307
##########           Internal_energy_repulsive:           11.964198

@<TRIPOS>MOLECULE
ZINC001083519372
 49 52 1 0 0
SMALL
USER_CHARGES


@<TRIPOS>ATOM
      1 C1          2.7853    0.1322   44.0563 C.3     1  ZINC001083519372   -0.1500
      2 C2          1.8400    0.4921   45.2042 C.3     1  ZINC001083519372   -0.0100
      3 C3          2.6462    0.6679   46.4927 C.3     1  ZINC001083519372   -0.1500
      4 C4          1.1235    1.7777   44.8806 C.2     1  ZINC001083519372   -0.0100
      5 C5         -0.0134    2.2208   45.4423 C.2     1  ZINC001083519372   -0.0100
      6 C6         -0.8073    1.5202   46.5147 C.3     1  ZINC001083519372    0.1300
      7 N7         -1.3567    2.5148   47.4458 N.3     1  ZINC001083519372   -0.5000
      8 C8         -2.6877    2.0920   47.9517 C.3     1  ZINC001083519372    0.0300
      9 C9         -2.8555    2.9250   49.2472 C.3     1  ZINC001083519372    0.1500
     10 H10        -3.1890    3.9365   49.0151 H       1  ZINC001083519372    0.1200
     11 N11        -3.7901    2.2711   50.1665 N.am    1  ZINC001083519372   -0.6900
     12 C12        -4.1855    2.9042   51.2887 C.2     1  ZINC001083519372    0.5600
     13 O13        -3.7678    4.0187   51.5373 O.2     1  ZINC001083519372   -0.5100
     14 C14        -5.1252    2.2452   52.2152 C.2     1  ZINC001083519372    0.1400
     15 C15        -5.3608    2.7683   53.4580 C.2     1  ZINC001083519372   -0.1500
     16 C16        -6.2590    2.1189   54.3154 C.2     1  ZINC001083519372    0.1800
     17 N17        -6.8681    1.0221   53.9334 N.2     1  ZINC001083519372   -0.4400
     18 C18        -6.6514    0.4954   52.7237 C.2     1  ZINC001083519372    0.2500
     19 C19        -7.1550   -0.6327   52.0852 C.2     1  ZINC001083519372   -0.2500
     20 C20        -6.5776   -0.6970   50.8279 C.2     1  ZINC001083519372    0.1000
     21 N21        -5.7610    0.3231   50.6782 N.2     1  ZINC001083519372   -0.3100
     22 N22        -5.7852    1.0960   51.8440 N.pl3   1  ZINC001083519372   -0.3100
     23 C23        -1.4256    2.9419   49.8349 C.3     1  ZINC001083519372    0.0900
     24 H24        -1.2029    3.9206   50.2601 H       1  ZINC001083519372    0.0800
     25 O25        -1.2865    1.9263   50.8305 O.3     1  ZINC001083519372   -0.5600
     26 C26        -0.4967    2.6539   48.6410 C.3     1  ZINC001083519372    0.0100
     27 N27        -0.3153    3.4022   44.8753 N.2     1  ZINC001083519372   -0.4800
     28 C28         0.5985    3.6873   43.9920 C.2     1  ZINC001083519372    0.1700
     29 O29         1.5059    2.7018   43.9775 O.3     1  ZINC001083519372   -0.2000
     30 H30         2.2111    0.0070   43.1383 H       1  ZINC001083519372    0.0600
     31 H31         3.5148    0.9310   43.9223 H       1  ZINC001083519372    0.0600
     32 H32         3.3036   -0.7977   44.2903 H       1  ZINC001083519372    0.0700
     33 H33         1.1106   -0.3066   45.3381 H       1  ZINC001083519372    0.1000
     34 H34         3.3756    1.4666   46.3588 H       1  ZINC001083519372    0.0600
     35 H35         1.9727    0.9242   47.3105 H       1  ZINC001083519372    0.0600
     36 H36         3.1645   -0.2621   46.7267 H       1  ZINC001083519372    0.0700
     37 H37        -1.6235    0.9618   46.0563 H       1  ZINC001083519372    0.0900
     38 H38        -0.1575    0.8340   47.0578 H       1  ZINC001083519372    0.0600
     39 H39        -3.4686    2.3383   47.2321 H       1  ZINC001083519372    0.1000
     40 H40        -2.6928    1.0255   48.1766 H       1  ZINC001083519372    0.0600
     41 H41        -4.1243    1.3824   49.9676 H       1  ZINC001083519372    0.4300
     42 H42        -4.8598    3.6712   53.7744 H       1  ZINC001083519372    0.1800
     43 H43        -6.4508    2.5242   55.2980 H       1  ZINC001083519372    0.1900
     44 H44        -7.8677   -1.3326   52.4958 H       1  ZINC001083519372    0.1700
     45 H45        -6.7672   -1.4619   50.0895 H       1  ZINC001083519372    0.2000
     46 H46        -0.8119    1.1403   50.5269 H       1  ZINC001083519372    0.3900
     47 H47         0.0527    1.7282   48.8129 H       1  ZINC001083519372    0.0700
     48 H48         0.1990    3.4816   48.5036 H       1  ZINC001083519372    0.0900
     49 H49         0.6229    4.5740   43.3760 H       1  ZINC001083519372    0.2500
@<TRIPOS>BOND
     1     1     2    1
     2     1    30    1
     3     1    31    1
     4     1    32    1
     5     2     3    1
     6     2     4    1
     7     2    33    1
     8     3    34    1
     9     3    35    1
    10     3    36    1
    11     4    29    1
    12     4     5    2
    13     5     6    1
    14     5    27    1
    15     6     7    1
    16     6    37    1
    17     6    38    1
    18     7    26    1
    19     7     8    1
    20     8     9    1
    21     8    39    1
    22     8    40    1
    23     9    10    1
    24     9    11    1
    25     9    23    1
    26    11    12   am
    27    11    41    1
    28    12    13    2
    29    12    14    1
    30    14    22    1
    31    14    15    2
    32    15    16    1
    33    15    42    1
    34    16    17    2
    35    16    43    1
    36    17    18    1
    37    18    22    1
    38    18    19    2
    39    19    20    1
    40    19    44    1
    41    20    21    2
    42    20    45    1
    43    21    22    1
    44    23    24    1
    45    23    25    1
    46    23    26    1
    47    25    46    1
    48    26    47    1
    49    26    48    1
    50    27    28    2
    51    28    29    1
    52    28    49    1
@<TRIPOS>SUBSTRUCTURE
     1 ZINC001083519372        1 TEMP              0 ****  ****    0 ROOT


##########                                Name:    ZINC001411334959
##########                DOCK_Rotatable_Bonds:                   9
##########                         Heavy_Atoms:                  24
##########                    Molecular_Weight:              339.37
##########                DOCK_Rotatable_Bonds:                   9
##########                       Formal_Charge:           0.0199995
##########                     HBond_Acceptors:                   9
##########                        HBond_Donors:                   3
##########                         Heavy_Atoms:                  24
##########                          Grid_Score:          -32.679726
##########                     Grid_vdw_energy:          -31.925022
##########                      Grid_es_energy:           -0.754704
##########           Internal_energy_repulsive:            6.206213

@<TRIPOS>MOLECULE
ZINC001411334959
 46 48 1 0 0
SMALL
USER_CHARGES


@<TRIPOS>ATOM
      1 O1        -11.2803    0.0010   56.1188 O.2     1  ZINC001411334959   -0.5400
      2 C2        -11.0223   -1.1148   55.7193 C.2     1  ZINC001411334959    0.5200
      3 C3        -11.5954   -2.3181   56.4226 C.3     1  ZINC001411334959   -0.1400
      4 C4        -13.0436   -2.5283   55.9758 C.3     1  ZINC001411334959   -0.0100
      5 C5        -13.5991   -3.7634   56.6369 C.2     1  ZINC001411334959    0.0100
      6 N6        -13.5351   -4.9971   56.1899 N.2     1  ZINC001411334959   -0.2800
      7 N7        -14.1219   -5.7721   57.0320 N.pl3   1  ZINC001411334959   -0.2500
      8 N8        -14.5776   -5.1000   58.0291 N.2     1  ZINC001411334959   -0.2800
      9 C9        -14.2821   -3.8320   57.8532 C.2     1  ZINC001411334959   -0.0200
     10 N10       -10.2277   -1.2784   54.6431 N.am    1  ZINC001411334959   -0.7200
     11 C11        -9.6706   -0.1086   53.9594 C.3     1  ZINC001411334959    0.1200
     12 C12        -8.5066    0.5515   54.7172 C.3     1  ZINC001411334959   -0.1400
     13 C13        -7.8268    0.7393   53.3507 C.3     1  ZINC001411334959   -0.1200
     14 C14        -6.3194    0.4785   53.3750 C.3     1  ZINC001411334959    0.1300
     15 N15        -5.6314    1.5192   52.6070 N.am    1  ZINC001411334959   -0.7200
     16 C16        -5.3412    1.3163   51.3066 C.2     1  ZINC001411334959    0.5100
     17 O17        -5.6509    0.2727   50.7718 O.2     1  ZINC001411334959   -0.5100
     18 C18        -4.6319    2.3861   50.5170 C.3     1  ZINC001411334959    0.0700
     19 F19        -4.7528    3.6295   51.1469 F       1  ZINC001411334959   -0.1800
     20 C20        -3.1397    2.0147   50.2992 C.3     1  ZINC001411334959   -0.1600
     21 C21        -2.8416    2.7597   48.9737 C.3     1  ZINC001411334959    0.0500
     22 O22        -4.0478    2.6486   48.2015 O.3     1  ZINC001411334959   -0.3700
     23 C23        -5.1684    2.4485   49.0707 C.3     1  ZINC001411334959    0.0400
     24 C24        -8.6522   -0.4630   52.8629 C.3     1  ZINC001411334959   -0.1400
     25 H25       -11.0062   -3.2003   56.1720 H       1  ZINC001411334959    0.1000
     26 H26       -11.5676   -2.1566   57.5002 H       1  ZINC001411334959    0.1000
     27 H27       -13.6413   -1.6629   56.2619 H       1  ZINC001411334959    0.1000
     28 H28       -13.0756   -2.6500   54.8931 H       1  ZINC001411334959    0.0900
     29 H29       -14.2089   -6.7326   56.9289 H       1  ZINC001411334959    0.4700
     30 H30       -14.5239   -3.0102   58.5109 H       1  ZINC001411334959    0.2000
     31 H31       -10.0246   -2.1707   54.3213 H       1  ZINC001411334959    0.4000
     32 H32       -10.4360    0.5955   53.6332 H       1  ZINC001411334959    0.1200
     33 H33        -8.7775    1.4890   55.2027 H       1  ZINC001411334959    0.0800
     34 H34        -7.9740   -0.1309   55.3797 H       1  ZINC001411334959    0.0900
     35 H35        -8.0863    1.6770   52.8592 H       1  ZINC001411334959    0.1000
     36 H36        -5.9647    0.4932   54.4056 H       1  ZINC001411334959    0.0800
     37 H37        -6.1121   -0.4961   52.9333 H       1  ZINC001411334959    0.0800
     38 H38        -5.3848    2.3544   53.0344 H       1  ZINC001411334959    0.4100
     39 H39        -2.5182    2.3930   51.1108 H       1  ZINC001411334959    0.1000
     40 H40        -3.0161    0.9381   50.1811 H       1  ZINC001411334959    0.1100
     41 H41        -2.6141    3.8072   49.1714 H       1  ZINC001411334959    0.0700
     42 H42        -2.0122    2.2838   48.4505 H       1  ZINC001411334959    0.1000
     43 H43        -5.6677    1.5122   48.8209 H       1  ZINC001411334959    0.0900
     44 H44        -5.8668    3.2794   48.9710 H       1  ZINC001411334959    0.0900
     45 H45        -8.1595   -1.4228   53.0184 H       1  ZINC001411334959    0.0900
     46 H46        -9.0406   -0.3445   51.8515 H       1  ZINC001411334959    0.0800
@<TRIPOS>BOND
     1     1     2    2
     2     2     3    1
     3     2    10   am
     4     3     4    1
     5     3    25    1
     6     3    26    1
     7     4     5    1
     8     4    27    1
     9     4    28    1
    10     5     9    1
    11     5     6    2
    12     6     7    1
    13     7     8    1
    14     7    29    1
    15     8     9    2
    16     9    30    1
    17    10    11    1
    18    10    31    1
    19    11    24    1
    20    11    12    1
    21    11    32    1
    22    12    13    1
    23    12    33    1
    24    12    34    1
    25    13    14    1
    26    13    24    1
    27    13    35    1
    28    14    15    1
    29    14    36    1
    30    14    37    1
    31    15    16   am
    32    15    38    1
    33    16    17    2
    34    16    18    1
    35    18    23    1
    36    18    19    1
    37    18    20    1
    38    20    21    1
    39    20    39    1
    40    20    40    1
    41    21    22    1
    42    21    41    1
    43    21    42    1
    44    22    23    1
    45    23    43    1
    46    23    44    1
    47    24    45    1
    48    24    46    1
@<TRIPOS>SUBSTRUCTURE
     1 ZINC001411334959        1 TEMP              0 ****  ****    0 ROOT


##########                                Name:    ZINC000000992968
##########                DOCK_Rotatable_Bonds:                   8
##########                         Heavy_Atoms:                  27
##########                    Molecular_Weight:             384.772
##########                DOCK_Rotatable_Bonds:                   8
##########                       Formal_Charge:           0.0199999
##########                     HBond_Acceptors:                   7
##########                        HBond_Donors:                   0
##########                         Heavy_Atoms:                  27
##########                          Grid_Score:          -32.671848
##########                     Grid_vdw_energy:          -30.605850
##########                      Grid_es_energy:           -2.065998
##########           Internal_energy_repulsive:            6.966145

@<TRIPOS>MOLECULE
ZINC000000992968
 40 42 1 0 0
SMALL
USER_CHARGES


@<TRIPOS>ATOM
      1 O1         -9.4261    1.9213   56.2910 O.2     1  ZINC000000992968   -0.4600
      2 C2         -8.4410    1.4689   56.8426 C.2     1  ZINC000000992968    0.5600
      3 O3         -7.2148    1.6960   56.3270 O.3     1  ZINC000000992968   -0.2900
      4 C4         -6.9861    1.3274   55.0413 C.ar    1  ZINC000000992968    0.1200
      5 C5         -7.4660    0.1086   54.5741 C.ar    1  ZINC000000992968   -0.1300
      6 C6         -7.2365   -0.2702   53.2712 C.ar    1  ZINC000000992968   -0.0400
      7 C7         -6.5188    0.5742   52.4152 C.ar    1  ZINC000000992968   -0.1600
      8 C8         -6.2714    0.1751   51.0234 C.2     1  ZINC000000992968    0.4000
      9 O9         -6.7616   -0.8457   50.5889 O.2     1  ZINC000000992968   -0.4200
     10 C10        -5.4085    1.0341   50.1352 C.3     1  ZINC000000992968    0.0200
     11 O11        -4.0105    0.8156   50.4609 O.3     1  ZINC000000992968   -0.3300
     12 C12        -3.1275    1.7272   50.0089 C.2     1  ZINC000000992968    0.5100
     13 O13        -2.8497    2.6936   50.6905 O.2     1  ZINC000000992968   -0.5000
     14 C14        -2.4974    1.5517   48.6851 C.ar    1  ZINC000000992968   -0.1300
     15 C15        -3.0564    2.1558   47.5567 C.ar    1  ZINC000000992968   -0.0500
     16 C16        -2.4631    1.9884   46.3234 C.ar    1  ZINC000000992968   -0.1200
     17 C17        -1.3151    1.2227   46.2021 C.ar    1  ZINC000000992968    0.0000
     18 Cl18       -0.5743    1.0163   44.6458 Cl      1  ZINC000000992968   -0.0500
     19 C19        -0.7556    0.6214   47.3175 C.ar    1  ZINC000000992968   -0.1200
     20 C20        -1.3366    0.7856   48.5572 C.ar    1  ZINC000000992968   -0.0400
     21 C21        -6.0383    1.8005   52.8905 C.ar    1  ZINC000000992968   -0.0600
     22 C22        -6.2778    2.1722   54.1937 C.ar    1  ZINC000000992968   -0.1200
     23 C23        -8.5852    0.6828   58.0698 C.2     1  ZINC000000992968   -0.0700
     24 C24        -9.7641    0.3360   58.6676 C.2     1  ZINC000000992968   -0.0900
     25 C25        -9.4333   -0.4102   59.8088 C.2     1  ZINC000000992968   -0.2300
     26 C26        -8.0845   -0.4857   59.8579 C.2     1  ZINC000000992968    0.0200
     27 O27        -7.5775    0.1690   58.8055 O.3     1  ZINC000000992968   -0.1500
     28 H28        -8.0193   -0.5420   55.2351 H       1  ZINC000000992968    0.1400
     29 H29        -7.6089   -1.2172   52.9095 H       1  ZINC000000992968    0.1500
     30 H30        -5.5843    0.7699   49.0925 H       1  ZINC000000992968    0.1100
     31 H31        -5.6582    2.0835   50.2912 H       1  ZINC000000992968    0.1100
     32 H32        -3.9518    2.7524   47.6500 H       1  ZINC000000992968    0.1500
     33 H33        -2.8944    2.4550   45.4501 H       1  ZINC000000992968    0.1500
     34 H34         0.1397    0.0258   47.2166 H       1  ZINC000000992968    0.1500
     35 H35        -0.8992    0.3165   49.4261 H       1  ZINC000000992968    0.1500
     36 H36        -5.4840    2.4552   52.2343 H       1  ZINC000000992968    0.1400
     37 H37        -5.9078    3.1179   54.5611 H       1  ZINC000000992968    0.1400
     38 H38       -10.7578    0.5874   58.3275 H       1  ZINC000000992968    0.1700
     39 H39       -10.1261   -0.8429   60.5152 H       1  ZINC000000992968    0.1700
     40 H40        -7.5105   -0.9938   60.6186 H       1  ZINC000000992968    0.2200
@<TRIPOS>BOND
     1     1     2    2
     2     2     3    1
     3     2    23    1
     4     3     4    1
     5     4    22   ar
     6     4     5   ar
     7     5     6   ar
     8     5    28    1
     9     6     7   ar
    10     6    29    1
    11     7     8    1
    12     7    21   ar
    13     8     9    2
    14     8    10    1
    15    10    11    1
    16    10    30    1
    17    10    31    1
    18    11    12    1
    19    12    13    2
    20    12    14    1
    21    14    20   ar
    22    14    15   ar
    23    15    16   ar
    24    15    32    1
    25    16    17   ar
    26    16    33    1
    27    17    18    1
    28    17    19   ar
    29    19    20   ar
    30    19    34    1
    31    20    35    1
    32    21    22   ar
    33    21    36    1
    34    22    37    1
    35    23    27    1
    36    23    24    2
    37    24    25    1
    38    24    38    1
    39    25    26    2
    40    25    39    1
    41    26    27    1
    42    26    40    1
@<TRIPOS>SUBSTRUCTURE
     1 ZINC000000992968        1 TEMP              0 ****  ****    0 ROOT


##########                                Name:    ZINC000762187039
##########                DOCK_Rotatable_Bonds:                   9
##########                         Heavy_Atoms:                  25
##########                    Molecular_Weight:             354.473
##########                DOCK_Rotatable_Bonds:                   9
##########                       Formal_Charge:        -1.78814e-07
##########                     HBond_Acceptors:                   5
##########                        HBond_Donors:                   1
##########                         Heavy_Atoms:                  25
##########                          Grid_Score:          -32.671379
##########                     Grid_vdw_energy:          -32.514809
##########                      Grid_es_energy:           -0.156571
##########           Internal_energy_repulsive:            5.280223

@<TRIPOS>MOLECULE
ZINC000762187039
 47 49 1 0 0
SMALL
USER_CHARGES


@<TRIPOS>ATOM
      1 C1         -1.1204    2.9878   48.7239 C.3     1  ZINC000762187039   -0.0800
      2 C2         -2.4686    3.0682   49.3925 C.2     1  ZINC000762187039    0.0500
      3 N3         -3.2949    2.0841   49.5091 N.2     1  ZINC000762187039   -0.4700
      4 C4         -4.4348    2.3263   50.1245 C.2     1  ZINC000762187039    0.0700
      5 C5         -5.4900    1.2705   50.3311 C.3     1  ZINC000762187039   -0.0300
      6 C6         -6.1325    1.4540   51.7075 C.3     1  ZINC000762187039   -0.1300
      7 C7         -7.0844    0.3163   51.9733 C.2     1  ZINC000762187039    0.5200
      8 O8         -7.1242   -0.6304   51.2164 O.2     1  ZINC000762187039   -0.5400
      9 N9         -7.8916    0.3511   53.0521 N.am    1  ZINC000762187039   -0.7300
     10 C10        -8.8181   -0.7541   53.3095 C.3     1  ZINC000762187039    0.1200
     11 C11        -9.2491   -0.7268   54.7774 C.3     1  ZINC000762187039   -0.1300
     12 C12       -10.4602   -1.6417   54.9703 C.3     1  ZINC000762187039    0.0600
     13 O13       -10.1351   -2.6713   55.9065 O.3     1  ZINC000762187039   -0.3100
     14 C14       -10.8518   -2.7045   57.0604 C.ar    1  ZINC000762187039    0.1300
     15 C15       -10.3069   -2.1600   58.2271 C.ar    1  ZINC000762187039   -0.1900
     16 C16       -10.9999   -2.1783   59.3973 C.ar    1  ZINC000762187039   -0.0600
     17 C17       -12.2826   -2.7514   59.4388 C.ar    1  ZINC000762187039   -0.0800
     18 C18       -13.0265   -2.7868   60.6306 C.ar    1  ZINC000762187039   -0.0900
     19 C19       -14.2658   -3.3491   60.6347 C.ar    1  ZINC000762187039   -0.1300
     20 C20       -14.8115   -3.8923   59.4729 C.ar    1  ZINC000762187039   -0.1000
     21 C21       -14.1209   -3.8763   58.3005 C.ar    1  ZINC000762187039   -0.1200
     22 C22       -12.8375   -3.3038   58.2569 C.ar    1  ZINC000762187039   -0.0100
     23 C23       -12.0978   -3.2646   57.0641 C.ar    1  ZINC000762187039   -0.1500
     24 C24        -4.5779    3.5848   50.5508 C.2     1  ZINC000762187039   -0.2600
     25 S25        -3.1216    4.4746   50.1126 S.3     1  ZINC000762187039    0.1200
     26 H26        -0.6324    3.9613   48.7721 H       1  ZINC000762187039    0.0800
     27 H27        -0.5050    2.2474   49.2349 H       1  ZINC000762187039    0.0900
     28 H28        -1.2485    2.6968   47.6814 H       1  ZINC000762187039    0.0900
     29 H29        -6.2533    1.3634   49.5586 H       1  ZINC000762187039    0.0900
     30 H30        -5.0322    0.2829   50.2727 H       1  ZINC000762187039    0.0900
     31 H31        -5.3561    1.4645   52.4724 H       1  ZINC000762187039    0.0900
     32 H32        -6.6782    2.3973   51.7308 H       1  ZINC000762187039    0.1000
     33 H33        -7.8589    1.1078   53.6580 H       1  ZINC000762187039    0.4000
     34 H34        -9.6954   -0.6488   52.6713 H       1  ZINC000762187039    0.0700
     35 H35        -8.3232   -1.7009   53.0937 H       1  ZINC000762187039    0.0700
     36 H36        -8.4276   -1.0746   55.4037 H       1  ZINC000762187039    0.0800
     37 H37        -9.5148    0.2920   55.0592 H       1  ZINC000762187039    0.0800
     38 H38       -11.2995   -1.0583   55.3488 H       1  ZINC000762187039    0.0700
     39 H39       -10.7316   -2.0914   54.0153 H       1  ZINC000762187039    0.0700
     40 H40        -9.3214   -1.7189   58.1988 H       1  ZINC000762187039    0.1300
     41 H41       -10.5661   -1.7546   60.2910 H       1  ZINC000762187039    0.1300
     42 H42       -12.6166   -2.3701   61.5388 H       1  ZINC000762187039    0.1300
     43 H43       -14.8350   -3.3751   61.5522 H       1  ZINC000762187039    0.1200
     44 H44       -15.7971   -4.3329   59.5037 H       1  ZINC000762187039    0.1200
     45 H45       -14.5563   -4.3009   57.4081 H       1  ZINC000762187039    0.1300
     46 H46       -12.5100   -3.6781   56.1556 H       1  ZINC000762187039    0.1300
     47 H47        -5.4334    3.9847   51.0747 H       1  ZINC000762187039    0.1800
@<TRIPOS>BOND
     1     1     2    1
     2     1    26    1
     3     1    27    1
     4     1    28    1
     5     2    25    1
     6     2     3    2
     7     3     4    1
     8     4     5    1
     9     4    24    2
    10     5     6    1
    11     5    29    1
    12     5    30    1
    13     6     7    1
    14     6    31    1
    15     6    32    1
    16     7     8    2
    17     7     9   am
    18     9    10    1
    19     9    33    1
    20    10    11    1
    21    10    34    1
    22    10    35    1
    23    11    12    1
    24    11    36    1
    25    11    37    1
    26    12    13    1
    27    12    38    1
    28    12    39    1
    29    13    14    1
    30    14    23   ar
    31    14    15   ar
    32    15    16   ar
    33    15    40    1
    34    16    17   ar
    35    16    41    1
    36    17    22   ar
    37    17    18   ar
    38    18    19   ar
    39    18    42    1
    40    19    20   ar
    41    19    43    1
    42    20    21   ar
    43    20    44    1
    44    21    22   ar
    45    21    45    1
    46    22    23   ar
    47    23    46    1
    48    24    25    1
    49    24    47    1
@<TRIPOS>SUBSTRUCTURE
     1 ZINC000762187039        1 TEMP              0 ****  ****    0 ROOT


##########                                Name:    ZINC000428748914
##########                DOCK_Rotatable_Bonds:                  11
##########                         Heavy_Atoms:                  30
##########                    Molecular_Weight:             413.492
##########                DOCK_Rotatable_Bonds:                  11
##########                       Formal_Charge:           0.0199993
##########                     HBond_Acceptors:                   7
##########                        HBond_Donors:                   3
##########                         Heavy_Atoms:                  30
##########                          Grid_Score:          -32.657223
##########                     Grid_vdw_energy:          -32.636345
##########                      Grid_es_energy:           -0.020880
##########           Internal_energy_repulsive:           12.563515

@<TRIPOS>MOLECULE
ZINC000428748914
 58 61 1 0 0
SMALL
USER_CHARGES


@<TRIPOS>ATOM
      1 O1         -3.6307    4.1790   50.6243 O.2     1  ZINC000428748914   -0.5900
      2 C2         -4.0571    3.5970   49.6456 C.2     1  ZINC000428748914    0.7000
      3 N3         -5.3834    3.5591   49.4087 N.am    1  ZINC000428748914   -0.7400
      4 C4         -6.3116    4.2142   50.3336 C.3     1  ZINC000428748914    0.1900
      5 C5         -6.7374    3.2340   51.3962 C.ar    1  ZINC000428748914   -0.2000
      6 C6         -6.0006    3.1025   52.5649 C.ar    1  ZINC000428748914   -0.0200
      7 C7         -6.4268    2.1904   53.5149 C.ar    1  ZINC000428748914   -0.1900
      8 C8         -7.5704    1.4422   53.2681 C.ar    1  ZINC000428748914    0.3300
      9 O9         -7.9988    0.5452   54.1915 O.3     1  ZINC000428748914   -0.3000
     10 C10        -9.3061   -0.0016   54.0071 C.3     1  ZINC000428748914    0.0800
     11 C11        -9.5645   -1.1430   55.0218 C.3     1  ZINC000428748914   -0.1400
     12 C12       -11.1106   -1.1821   55.1058 C.3     1  ZINC000428748914   -0.1200
     13 C13       -11.5308    0.3007   55.0381 C.3     1  ZINC000428748914   -0.1200
     14 C14       -10.3834    1.0512   54.3395 C.3     1  ZINC000428748914   -0.1200
     15 N15        -8.2463    1.5960   52.1414 N.ar    1  ZINC000428748914   -0.5400
     16 C16        -7.8682    2.4612   51.2199 C.ar    1  ZINC000428748914    0.1600
     17 N17        -3.2031    2.9943   48.7947 N.am    1  ZINC000428748914   -0.7400
     18 C18        -1.7615    3.0355   49.0522 C.3     1  ZINC000428748914    0.1800
     19 C19        -1.0522    2.0297   48.1431 C.3     1  ZINC000428748914   -0.1300
     20 C20        -1.6778    0.6346   48.0879 C.3     1  ZINC000428748914    0.1100
     21 O21        -1.7172    0.0777   49.4034 O.3     1  ZINC000428748914   -0.5700
     22 C22         0.4710    2.1262   48.0359 C.3     1  ZINC000428748914   -0.1400
     23 C23        -0.4079    2.5662   46.8634 C.3     1  ZINC000428748914   -0.1000
     24 H24        -0.4893    3.6356   46.6690 H       1  ZINC000428748914    0.1200
     25 C25        -0.4371    1.6800   45.6448 C.ar    1  ZINC000428748914   -0.0700
     26 C26         0.7454    1.2123   45.1024 C.ar    1  ZINC000428748914   -0.0900
     27 C27         0.7199    0.3996   43.9849 C.ar    1  ZINC000428748914   -0.1500
     28 C28        -0.4907    0.0533   43.4090 C.ar    1  ZINC000428748914    0.1000
     29 F29        -0.5168   -0.7415   42.3168 F       1  ZINC000428748914   -0.1400
     30 C30        -1.6744    0.5219   43.9534 C.ar    1  ZINC000428748914   -0.1500
     31 C31        -1.6466    1.3306   45.0737 C.ar    1  ZINC000428748914   -0.0800
     32 H32        -5.7233    3.0982   48.6258 H       1  ZINC000428748914    0.4000
     33 H33        -5.8177    5.0657   50.8018 H       1  ZINC000428748914    0.0800
     34 H34        -7.1881    4.5591   49.7852 H       1  ZINC000428748914    0.0800
     35 H35        -5.1147    3.6979   52.7293 H       1  ZINC000428748914    0.1400
     36 H36        -5.8771    2.0620   54.4357 H       1  ZINC000428748914    0.1400
     37 H37        -9.4273   -0.3620   52.9855 H       1  ZINC000428748914    0.1000
     38 H38        -9.1739   -2.0890   54.6468 H       1  ZINC000428748914    0.0700
     39 H39        -9.1309   -0.9024   55.9925 H       1  ZINC000428748914    0.0800
     40 H40       -11.5246   -1.7349   54.2625 H       1  ZINC000428748914    0.0700
     41 H41       -11.4303   -1.6266   56.0483 H       1  ZINC000428748914    0.0700
     42 H42       -12.4496    0.4024   54.4607 H       1  ZINC000428748914    0.0700
     43 H43       -11.6761    0.6938   56.0443 H       1  ZINC000428748914    0.0700
     44 H44        -9.9720    1.8087   55.0067 H       1  ZINC000428748914    0.0800
     45 H45       -10.7456    1.5172   53.4230 H       1  ZINC000428748914    0.0700
     46 H46        -8.4452    2.5598   50.3124 H       1  ZINC000428748914    0.1600
     47 H47        -3.5430    2.5334   48.0118 H       1  ZINC000428748914    0.3900
     48 H48        -1.3846    4.0378   48.8490 H       1  ZINC000428748914    0.0700
     49 H49        -1.5712    2.7802   50.0947 H       1  ZINC000428748914    0.0900
     50 H50        -2.6913    0.7062   47.6931 H       1  ZINC000428748914    0.0500
     51 H51        -1.0800   -0.0063   47.4399 H       1  ZINC000428748914    0.0600
     52 H52        -2.1588   -0.7810   49.4539 H       1  ZINC000428748914    0.3800
     53 H53         0.9677    2.9062   48.6130 H       1  ZINC000428748914    0.1100
     54 H54         1.0278    1.1956   47.9262 H       1  ZINC000428748914    0.1100
     55 H55         1.6895    1.4826   45.5519 H       1  ZINC000428748914    0.1400
     56 H56         1.6438    0.0350   43.5610 H       1  ZINC000428748914    0.1400
     57 H57        -2.6192    0.2527   43.5047 H       1  ZINC000428748914    0.1400
     58 H58        -2.5698    1.6959   45.4987 H       1  ZINC000428748914    0.1300
@<TRIPOS>BOND
     1     1     2    2
     2     2     3   am
     3     2    17   am
     4     3     4    1
     5     3    32    1
     6     4     5    1
     7     4    33    1
     8     4    34    1
     9     5    16   ar
    10     5     6   ar
    11     6     7   ar
    12     6    35    1
    13     7     8   ar
    14     7    36    1
    15     8     9    1
    16     8    15   ar
    17     9    10    1
    18    10    14    1
    19    10    11    1
    20    10    37    1
    21    11    12    1
    22    11    38    1
    23    11    39    1
    24    12    13    1
    25    12    40    1
    26    12    41    1
    27    13    14    1
    28    13    42    1
    29    13    43    1
    30    14    44    1
    31    14    45    1
    32    15    16   ar
    33    16    46    1
    34    17    18    1
    35    17    47    1
    36    18    19    1
    37    18    48    1
    38    18    49    1
    39    19    23    1
    40    19    20    1
    41    19    22    1
    42    20    21    1
    43    20    50    1
    44    20    51    1
    45    21    52    1
    46    22    23    1
    47    22    53    1
    48    22    54    1
    49    23    24    1
    50    23    25    1
    51    25    31   ar
    52    25    26   ar
    53    26    27   ar
    54    26    55    1
    55    27    28   ar
    56    27    56    1
    57    28    29    1
    58    28    30   ar
    59    30    31   ar
    60    30    57    1
    61    31    58    1
@<TRIPOS>SUBSTRUCTURE
     1 ZINC000428748914        1 TEMP              0 ****  ****    0 ROOT


##########                                Name:    ZINC000505965769
##########                DOCK_Rotatable_Bonds:                   9
##########                         Heavy_Atoms:                  29
##########                    Molecular_Weight:              419.88
##########                DOCK_Rotatable_Bonds:                   9
##########                       Formal_Charge:               -0.02
##########                     HBond_Acceptors:                   7
##########                        HBond_Donors:                   1
##########                         Heavy_Atoms:                  29
##########                          Grid_Score:          -32.633057
##########                     Grid_vdw_energy:          -30.795586
##########                      Grid_es_energy:           -1.837469
##########           Internal_energy_repulsive:           13.505181

@<TRIPOS>MOLECULE
ZINC000505965769
 52 54 1 0 0
SMALL
USER_CHARGES


@<TRIPOS>ATOM
      1 C1         -4.7099    1.9664   49.3532 C.3     1  ZINC000505965769    0.0200
      2 O2         -4.3939    1.1928   50.5125 O.3     1  ZINC000505965769   -0.3100
      3 C3         -5.1955    1.3507   51.5955 C.ar    1  ZINC000505965769    0.1800
      4 C4         -4.8736    2.2960   52.5638 C.ar    1  ZINC000505965769   -0.2200
      5 C5         -5.6749    2.4622   53.6572 C.ar    1  ZINC000505965769   -0.0200
      6 C6         -6.8263    1.6793   53.8076 C.ar    1  ZINC000505965769   -0.2100
      7 C7         -7.6892    1.8564   54.9815 C.2     1  ZINC000505965769    0.3900
      8 O8         -8.5173    2.7427   54.9973 O.2     1  ZINC000505965769   -0.4400
      9 C9         -7.5467    0.9371   56.1671 C.3     1  ZINC000505965769   -0.1500
     10 C10        -8.6193    1.2734   57.2050 C.3     1  ZINC000505965769   -0.1300
     11 C11        -8.4419    0.3919   58.4144 C.2     1  ZINC000505965769    0.5200
     12 O12        -7.3627    0.3261   58.9638 O.2     1  ZINC000505965769   -0.5300
     13 N13        -9.4827   -0.3233   58.8855 N.am    1  ZINC000505965769   -0.7200
     14 C14        -9.3098   -1.1815   60.0600 C.3     1  ZINC000505965769    0.1900
     15 H15        -8.3093   -1.6140   60.0500 H       1  ZINC000505965769    0.1100
     16 C16        -9.4902   -0.3620   61.3118 C.ar    1  ZINC000505965769   -0.1000
     17 C17        -8.6879   -0.5971   62.4128 C.ar    1  ZINC000505965769   -0.0900
     18 C18        -8.8525    0.1539   63.5613 C.ar    1  ZINC000505965769   -0.1500
     19 C19        -9.8210    1.1421   63.6088 C.ar    1  ZINC000505965769    0.1000
     20 F20        -9.9825    1.8771   64.7309 F       1  ZINC000505965769   -0.1400
     21 C21       -10.6237    1.3769   62.5052 C.ar    1  ZINC000505965769   -0.1500
     22 C22       -10.4540    0.6281   61.3562 C.ar    1  ZINC000505965769   -0.0600
     23 C23       -10.3503   -2.3027   60.0301 C.3     1  ZINC000505965769    0.0800
     24 H24       -10.3187   -2.8724   60.9588 H       1  ZINC000505965769    0.0700
     25 C25       -11.7670   -1.7159   59.8072 C.3     1  ZINC000505965769   -0.1500
     26 C26       -12.4962   -2.9358   59.1808 C.3     1  ZINC000505965769   -0.1600
     27 C27       -11.3714   -3.6047   58.3618 C.3     1  ZINC000505965769    0.0500
     28 O28       -10.1192   -3.1676   58.9066 O.3     1  ZINC000505965769   -0.3700
     29 C29        -7.1517    0.7260   52.8322 C.ar    1  ZINC000505965769    0.0500
     30 Cl30       -8.5765   -0.2499   53.0083 Cl      1  ZINC000505965769   -0.0200
     31 C31        -6.3385    0.5708   51.7305 C.ar    1  ZINC000505965769   -0.1600
     32 H32        -4.6628    3.0270   49.6002 H       1  ZINC000505965769    0.0600
     33 H33        -3.9929    1.7454   48.5624 H       1  ZINC000505965769    0.1100
     34 H34        -5.7148    1.7168   49.0127 H       1  ZINC000505965769    0.0600
     35 H35        -3.9862    2.9009   52.4506 H       1  ZINC000505965769    0.1400
     36 H36        -5.4203    3.1974   54.4063 H       1  ZINC000505965769    0.1500
     37 H37        -7.6671   -0.0964   55.8420 H       1  ZINC000505965769    0.1100
     38 H38        -6.5593    1.0660   56.6101 H       1  ZINC000505965769    0.1100
     39 H39        -8.5244    2.3184   57.5000 H       1  ZINC000505965769    0.1000
     40 H40        -9.6067    1.1056   56.7748 H       1  ZINC000505965769    0.1000
     41 H41       -10.3462   -0.2697   58.4468 H       1  ZINC000505965769    0.4000
     42 H42        -7.9325   -1.3680   62.3756 H       1  ZINC000505965769    0.1300
     43 H43        -8.2261   -0.0303   64.4216 H       1  ZINC000505965769    0.1400
     44 H44       -11.3797    2.1474   62.5413 H       1  ZINC000505965769    0.1400
     45 H45       -11.0798    0.8112   60.4952 H       1  ZINC000505965769    0.1400
     46 H46       -12.2258   -1.4270   60.7527 H       1  ZINC000505965769    0.0700
     47 H47       -11.7394   -0.8759   59.1131 H       1  ZINC000505965769    0.1000
     48 H48       -12.8639   -3.6079   59.9561 H       1  ZINC000505965769    0.0700
     49 H49       -13.3083   -2.6104   58.5307 H       1  ZINC000505965769    0.0800
     50 H50       -11.4499   -4.6889   58.4427 H       1  ZINC000505965769    0.0700
     51 H51       -11.4462   -3.3043   57.3167 H       1  ZINC000505965769    0.0700
     52 H52        -6.5849   -0.1617   50.9762 H       1  ZINC000505965769    0.1500
@<TRIPOS>BOND
     1     1     2    1
     2     1    32    1
     3     1    33    1
     4     1    34    1
     5     2     3    1
     6     3    31   ar
     7     3     4   ar
     8     4     5   ar
     9     4    35    1
    10     5     6   ar
    11     5    36    1
    12     6     7    1
    13     6    29   ar
    14     7     8    2
    15     7     9    1
    16     9    10    1
    17     9    37    1
    18     9    38    1
    19    10    11    1
    20    10    39    1
    21    10    40    1
    22    11    12    2
    23    11    13   am
    24    13    14    1
    25    13    41    1
    26    14    15    1
    27    14    16    1
    28    14    23    1
    29    16    22   ar
    30    16    17   ar
    31    17    18   ar
    32    17    42    1
    33    18    19   ar
    34    18    43    1
    35    19    20    1
    36    19    21   ar
    37    21    22   ar
    38    21    44    1
    39    22    45    1
    40    23    24    1
    41    23    28    1
    42    23    25    1
    43    25    26    1
    44    25    46    1
    45    25    47    1
    46    26    27    1
    47    26    48    1
    48    26    49    1
    49    27    28    1
    50    27    50    1
    51    27    51    1
    52    29    30    1
    53    29    31   ar
    54    31    52    1
@<TRIPOS>SUBSTRUCTURE
     1 ZINC000505965769        1 TEMP              0 ****  ****    0 ROOT


##########                                Name:    ZINC000600609084
##########                DOCK_Rotatable_Bonds:                   8
##########                         Heavy_Atoms:                  30
##########                    Molecular_Weight:             422.548
##########                DOCK_Rotatable_Bonds:                   8
##########                       Formal_Charge:           0.0100005
##########                     HBond_Acceptors:                   6
##########                        HBond_Donors:                   2
##########                         Heavy_Atoms:                  30
##########                          Grid_Score:          -32.595955
##########                     Grid_vdw_energy:          -30.090612
##########                      Grid_es_energy:           -2.505342
##########           Internal_energy_repulsive:           20.503134

@<TRIPOS>MOLECULE
ZINC000600609084
 56 59 1 0 0
SMALL
USER_CHARGES


@<TRIPOS>ATOM
      1 O1         -1.1606    2.9135   50.4703 O.2     1  ZINC000600609084   -0.5300
      2 C2         -1.0204    1.7463   50.1722 C.2     1  ZINC000600609084    0.5200
      3 C3         -2.1959    0.9524   49.6630 C.3     1  ZINC000600609084   -0.1500
      4 C4         -3.4073    1.1997   50.5641 C.3     1  ZINC000600609084    0.1300
      5 N5         -4.2929    2.1814   49.9334 N.am    1  ZINC000600609084   -1.1200
      6 S6         -5.2280    3.1760   50.8709 S.o2    1  ZINC000600609084    2.7000
      7 O7         -4.3455    3.8121   51.7851 O.2     1  ZINC000600609084   -0.9600
      8 O8         -6.0716    3.8917   49.9790 O.2     1  ZINC000600609084   -0.9500
      9 C9         -6.2832    2.1445   51.8338 C.ar    1  ZINC000600609084   -0.6700
     10 C10        -7.2099    1.3235   51.1947 C.ar    1  ZINC000600609084   -0.0400
     11 C11        -8.0399    0.5147   51.9088 C.ar    1  ZINC000600609084   -0.1200
     12 C12        -7.9634    0.5051   53.3118 C.ar    1  ZINC000600609084   -0.0100
     13 C13        -8.8030   -0.3167   54.0830 C.ar    1  ZINC000600609084   -0.1200
     14 C14        -8.7003   -0.2998   55.4399 C.ar    1  ZINC000600609084   -0.0900
     15 C15        -7.7733    0.5215   56.0794 C.ar    1  ZINC000600609084   -0.1200
     16 C16        -6.9440    1.3305   55.3654 C.ar    1  ZINC000600609084   -0.0900
     17 C17        -7.0206    1.3404   53.9620 C.ar    1  ZINC000600609084   -0.0800
     18 C18        -6.1770    2.1575   53.1909 C.ar    1  ZINC000600609084    0.0200
     19 N19         0.1877    1.1608   50.2909 N.am    1  ZINC000600609084   -0.7200
     20 C20         1.3302    1.9326   50.7858 C.3     1  ZINC000600609084    0.1400
     21 H21         1.0385    2.9707   50.9447 H       1  ZINC000600609084    0.1000
     22 C22         1.8480    1.3234   52.1006 C.3     1  ZINC000600609084   -0.1300
     23 C23         3.3092    0.9002   51.8448 C.3     1  ZINC000600609084   -0.1300
     24 C24         3.3862    0.7090   50.3098 C.3     1  ZINC000600609084   -0.1200
     25 C25         2.4945    1.8593   49.7765 C.3     1  ZINC000600609084   -0.0700
     26 H26         3.0491    2.7976   49.7642 H       1  ZINC000600609084    0.0900
     27 C27         1.9817    1.5332   48.3974 C.ar    1  ZINC000600609084   -0.0600
     28 C28         0.9826    2.3030   47.8315 C.ar    1  ZINC000600609084   -0.1100
     29 C29         0.5122    2.0038   46.5666 C.ar    1  ZINC000600609084   -0.1200
     30 C30         1.0413    0.9350   45.8673 C.ar    1  ZINC000600609084   -0.1200
     31 C31         2.0409    0.1658   46.4329 C.ar    1  ZINC000600609084   -0.1200
     32 C32         2.5143    0.4676   47.6961 C.ar    1  ZINC000600609084   -0.1100
     33 H33        -2.4307    1.2632   48.6450 H       1  ZINC000600609084    0.1000
     34 H34        -1.9480   -0.1091   49.6707 H       1  ZINC000600609084    0.1000
     35 H35        -3.9477    0.2645   50.7113 H       1  ZINC000600609084    0.0900
     36 H36        -3.0710    1.5805   51.5286 H       1  ZINC000600609084    0.0800
     37 H37        -4.3316    2.2491   48.9664 H       1  ZINC000600609084    0.4200
     38 H38        -7.2710    1.3293   50.1164 H       1  ZINC000600609084    0.1400
     39 H39        -8.7536   -0.1161   51.3998 H       1  ZINC000600609084    0.1400
     40 H40        -9.5264   -0.9581   53.6014 H       1  ZINC000600609084    0.1300
     41 H41        -9.3470   -0.9320   56.0302 H       1  ZINC000600609084    0.1300
     42 H42        -7.7126    0.5162   57.1576 H       1  ZINC000600609084    0.1300
     43 H43        -6.2308    1.9620   55.8745 H       1  ZINC000600609084    0.1300
     44 H44        -5.4507    2.7954   53.6725 H       1  ZINC000600609084    0.1500
     45 H45         0.3006    0.2284   50.0485 H       1  ZINC000600609084    0.4000
     46 H46         1.8083    2.0661   52.8973 H       1  ZINC000600609084    0.0800
     47 H47         1.2491    0.4535   52.3704 H       1  ZINC000600609084    0.0700
     48 H48         3.9952    1.6839   52.1665 H       1  ZINC000600609084    0.0700
     49 H49         3.5306   -0.0359   52.3575 H       1  ZINC000600609084    0.0700
     50 H50         4.4117    0.8204   49.9575 H       1  ZINC000600609084    0.0700
     51 H51         2.9804   -0.2604   50.0204 H       1  ZINC000600609084    0.0700
     52 H52         0.5694    3.1379   48.3777 H       1  ZINC000600609084    0.1200
     53 H53        -0.2687    2.6047   46.1248 H       1  ZINC000600609084    0.1200
     54 H54         0.6732    0.7008   44.8794 H       1  ZINC000600609084    0.1200
     55 H55         2.4539   -0.6694   45.8868 H       1  ZINC000600609084    0.1200
     56 H56         3.2953   -0.1334   48.1380 H       1  ZINC000600609084    0.1200
@<TRIPOS>BOND
     1     1     2    2
     2     2     3    1
     3     2    19   am
     4     3     4    1
     5     3    33    1
     6     3    34    1
     7     4     5    1
     8     4    35    1
     9     4    36    1
    10     5     6   am
    11     5    37    1
    12     6     7    2
    13     6     8    2
    14     6     9    1
    15     9    18   ar
    16     9    10   ar
    17    10    11   ar
    18    10    38    1
    19    11    12   ar
    20    11    39    1
    21    12    17   ar
    22    12    13   ar
    23    13    14   ar
    24    13    40    1
    25    14    15   ar
    26    14    41    1
    27    15    16   ar
    28    15    42    1
    29    16    17   ar
    30    16    43    1
    31    17    18   ar
    32    18    44    1
    33    19    20    1
    34    19    45    1
    35    20    21    1
    36    20    25    1
    37    20    22    1
    38    22    23    1
    39    22    46    1
    40    22    47    1
    41    23    24    1
    42    23    48    1
    43    23    49    1
    44    24    25    1
    45    24    50    1
    46    24    51    1
    47    25    26    1
    48    25    27    1
    49    27    32   ar
    50    27    28   ar
    51    28    29   ar
    52    28    52    1
    53    29    30   ar
    54    29    53    1
    55    30    31   ar
    56    30    54    1
    57    31    32   ar
    58    31    55    1
    59    32    56    1
@<TRIPOS>SUBSTRUCTURE
     1 ZINC000600609084        1 TEMP              0 ****  ****    0 ROOT


##########                                Name:    ZINC001340305486
##########                DOCK_Rotatable_Bonds:                   8
##########                         Heavy_Atoms:                  27
##########                    Molecular_Weight:             378.431
##########                DOCK_Rotatable_Bonds:                   8
##########                       Formal_Charge:          0.00999955
##########                     HBond_Acceptors:                  10
##########                        HBond_Donors:                   2
##########                         Heavy_Atoms:                  27
##########                          Grid_Score:          -32.580357
##########                     Grid_vdw_energy:          -30.961588
##########                      Grid_es_energy:           -1.618770
##########           Internal_energy_repulsive:            8.976760

@<TRIPOS>MOLECULE
ZINC001340305486
 53 55 1 0 0
SMALL
USER_CHARGES


@<TRIPOS>ATOM
      1 C1         -6.2277    2.5103   57.3958 C.3     1  ZINC001340305486    0.0900
      2 N2         -7.0348    1.6849   56.4939 N.am    1  ZINC001340305486   -0.7300
      3 C3         -8.1705    1.1123   56.9397 C.2     1  ZINC001340305486    0.5200
      4 O4         -8.5236    1.2792   58.0879 O.2     1  ZINC001340305486   -0.5100
      5 C5         -9.0017    0.2646   56.0115 C.3     1  ZINC001340305486    0.0600
      6 H6         -8.6559   -0.7682   56.0540 H       1  ZINC001340305486    0.0900
      7 C7         -8.8665    0.7912   54.5782 C.3     1  ZINC001340305486    0.0900
      8 N8         -9.8262    0.0708   53.7265 N.am    1  ZINC001340305486   -0.5800
      9 C9         -9.4341   -0.5043   52.5724 C.2     1  ZINC001340305486    0.5100
     10 O10       -10.2409   -1.0936   51.8834 O.2     1  ZINC001340305486   -0.5200
     11 C11        -8.0060   -0.4162   52.1410 C.2     1  ZINC001340305486    0.5200
     12 O12        -7.2474   -1.3372   52.3622 O.2     1  ZINC001340305486   -0.5000
     13 N13        -7.5605    0.6862   51.5063 N.am    1  ZINC001340305486   -0.6900
     14 C14        -6.1601    0.7732   51.0849 C.3     1  ZINC001340305486    0.1200
     15 C15        -6.0297    1.7989   49.9571 C.3     1  ZINC001340305486   -0.0400
     16 C16        -4.8615    2.7085   50.2382 C.2     1  ZINC001340305486    0.1700
     17 N17        -4.9198    3.9149   50.7373 N.2     1  ZINC001340305486   -0.2800
     18 N18        -3.7309    4.3965   50.8485 N.2     1  ZINC001340305486   -0.2900
     19 C19        -2.8644    3.5183   50.4306 C.2     1  ZINC001340305486    0.1900
     20 C20        -1.3643    3.6581   50.4095 C.3     1  ZINC001340305486   -0.0400
     21 C21        -0.8375    3.1973   49.0472 C.3     1  ZINC001340305486   -0.1200
     22 C22        -0.5715    1.6953   49.0835 C.3     1  ZINC001340305486   -0.1300
     23 C23        -1.5788    0.9952   49.9945 C.3     1  ZINC001340305486   -0.1400
     24 C24        -2.9963    1.2031   49.4541 C.3     1  ZINC001340305486    0.1000
     25 N25        -3.5566    2.4277   50.0267 N.pl3   1  ZINC001340305486   -0.4600
     26 C26       -11.2268   -0.0027   54.1720 C.3     1  ZINC001340305486    0.0200
     27 C27       -11.2470   -0.4906   55.6250 C.3     1  ZINC001340305486    0.0500
     28 O28       -10.3736    0.3256   56.4089 O.3     1  ZINC001340305486   -0.3500
     29 H29        -6.8244    3.3505   57.7509 H       1  ZINC001340305486    0.0600
     30 H30        -5.9038    1.9098   58.2458 H       1  ZINC001340305486    0.0600
     31 H31        -5.3545    2.8849   56.8617 H       1  ZINC001340305486    0.0800
     32 H32        -6.7518    1.5504   55.5760 H       1  ZINC001340305486    0.4000
     33 H33        -9.0861    1.8587   54.5571 H       1  ZINC001340305486    0.0900
     34 H34        -7.8528    0.6173   54.2173 H       1  ZINC001340305486    0.1100
     35 H35        -8.1671    1.4218   51.3285 H       1  ZINC001340305486    0.4200
     36 H36        -5.5449    1.0822   51.9301 H       1  ZINC001340305486    0.0900
     37 H37        -5.8262   -0.2017   50.7298 H       1  ZINC001340305486    0.0800
     38 H38        -5.8678    1.2809   49.0119 H       1  ZINC001340305486    0.0900
     39 H39        -6.9437    2.3896   49.8958 H       1  ZINC001340305486    0.1100
     40 H40        -1.0931    4.7014   50.5713 H       1  ZINC001340305486    0.1000
     41 H41        -0.9296    3.0412   51.1961 H       1  ZINC001340305486    0.0900
     42 H42        -1.5786    3.4162   48.2785 H       1  ZINC001340305486    0.0600
     43 H43         0.0888    3.7245   48.8188 H       1  ZINC001340305486    0.0800
     44 H44        -0.6565    1.2905   48.0750 H       1  ZINC001340305486    0.0700
     45 H45         0.4366    1.5175   49.4581 H       1  ZINC001340305486    0.0800
     46 H46        -1.3566   -0.0715   50.0286 H       1  ZINC001340305486    0.0900
     47 H47        -1.5092    1.4114   50.9995 H       1  ZINC001340305486    0.0800
     48 H48        -2.9626    1.2876   48.3680 H       1  ZINC001340305486    0.0900
     49 H49        -3.6204    0.3544   49.7340 H       1  ZINC001340305486    0.1000
     50 H50       -11.6840    0.9848   54.1099 H       1  ZINC001340305486    0.0800
     51 H51       -11.7760   -0.7024   53.5420 H       1  ZINC001340305486    0.1700
     52 H52       -12.2611   -0.4209   56.0184 H       1  ZINC001340305486    0.1200
     53 H53       -10.9102   -1.5266   55.6659 H       1  ZINC001340305486    0.0600
@<TRIPOS>BOND
     1     1     2    1
     2     1    29    1
     3     1    30    1
     4     1    31    1
     5     2     3   am
     6     2    32    1
     7     3     4    2
     8     3     5    1
     9     5     6    1
    10     5    28    1
    11     5     7    1
    12     7     8    1
    13     7    33    1
    14     7    34    1
    15     8     9   am
    16     8    26    1
    17     9    10    2
    18     9    11    1
    19    11    12    2
    20    11    13   am
    21    13    14    1
    22    13    35    1
    23    14    15    1
    24    14    36    1
    25    14    37    1
    26    15    16    1
    27    15    38    1
    28    15    39    1
    29    16    25    1
    30    16    17    2
    31    17    18    1
    32    18    19    2
    33    19    25    1
    34    19    20    1
    35    20    21    1
    36    20    40    1
    37    20    41    1
    38    21    22    1
    39    21    42    1
    40    21    43    1
    41    22    23    1
    42    22    44    1
    43    22    45    1
    44    23    24    1
    45    23    46    1
    46    23    47    1
    47    24    25    1
    48    24    48    1
    49    24    49    1
    50    26    27    1
    51    26    50    1
    52    26    51    1
    53    27    28    1
    54    27    52    1
    55    27    53    1
@<TRIPOS>SUBSTRUCTURE
     1 ZINC001340305486        1 TEMP              0 ****  ****    0 ROOT


##########                                Name:    ZINC000279452407
##########                DOCK_Rotatable_Bonds:                   6
##########                         Heavy_Atoms:                  24
##########                    Molecular_Weight:              375.47
##########                DOCK_Rotatable_Bonds:                   6
##########                       Formal_Charge:          0.00999929
##########                     HBond_Acceptors:                  10
##########                        HBond_Donors:                   3
##########                         Heavy_Atoms:                  24
##########                          Grid_Score:          -32.577660
##########                     Grid_vdw_energy:          -32.186428
##########                      Grid_es_energy:           -0.391231
##########           Internal_energy_repulsive:           28.945183

@<TRIPOS>MOLECULE
ZINC000279452407
 45 47 1 0 0
SMALL
USER_CHARGES


@<TRIPOS>ATOM
      1 C1        -12.0896   -0.3825   59.9038 C.3     1  ZINC000279452407   -0.1600
      2 C2        -13.2260   -1.2921   59.4322 C.3     1  ZINC000279452407    0.0600
      3 H3        -13.3103   -1.2480   58.3464 H       1  ZINC000279452407    0.0700
      4 O4        -14.4655   -0.8812   60.0369 O.3     1  ZINC000279452407   -0.3700
      5 C5        -15.2409   -2.0781   60.2653 C.3     1  ZINC000279452407    0.0500
      6 C6        -14.1855   -3.1093   60.7431 C.3     1  ZINC000279452407   -0.1400
      7 C7        -12.9584   -2.7372   59.8777 C.3     1  ZINC000279452407    0.0700
      8 C8        -11.6871   -2.8062   60.7199 C.3     1  ZINC000279452407    0.1100
      9 N9        -10.5280   -2.6232   59.8300 N.am    1  ZINC000279452407   -0.6300
     10 C10        -9.5577   -1.7358   60.1261 C.2     1  ZINC000279452407    0.7200
     11 O11        -8.6090   -1.6002   59.3780 O.2     1  ZINC000279452407   -0.5800
     12 N12        -9.6393   -0.9987   61.2516 N.am    1  ZINC000279452407   -0.7500
     13 C13        -8.5846   -0.0343   61.5734 C.3     1  ZINC000279452407    0.2000
     14 C14        -8.5430    0.1859   63.0637 C.2     1  ZINC000279452407   -0.1700
     15 C15        -9.1702    1.1674   63.7138 C.2     1  ZINC000279452407   -0.1400
     16 C16        -8.9861    1.1691   65.0857 C.2     1  ZINC000279452407    0.0100
     17 C17        -8.2093    0.1890   65.5497 C.2     1  ZINC000279452407   -0.7900
     18 S18        -7.7970   -0.0644   67.2440 S.o2    1  ZINC000279452407    2.7300
     19 N19        -8.9732   -1.0309   67.8955 N.am    1  ZINC000279452407   -1.2500
     20 O20        -6.5985   -0.8277   67.2554 O.2     1  ZINC000279452407   -0.9600
     21 O21        -7.9189    1.2004   67.8801 O.2     1  ZINC000279452407   -0.9500
     22 S22        -7.6664   -0.8164   64.2126 S.3     1  ZINC000279452407    0.2500
     23 C23       -10.4622   -3.4398   58.6075 C.3     1  ZINC000279452407    0.0700
     24 C24       -11.7936   -3.3037   57.8601 C.3     1  ZINC000279452407    0.0400
     25 O25       -12.8688   -3.6051   58.7545 O.3     1  ZINC000279452407   -0.3600
     26 H26       -11.1731   -0.6418   59.3738 H       1  ZINC000279452407    0.0700
     27 H27       -12.3467    0.6565   59.6983 H       1  ZINC000279452407    0.0600
     28 H28       -11.9394   -0.5146   60.9753 H       1  ZINC000279452407    0.0800
     29 H29       -15.9893   -1.9083   61.0394 H       1  ZINC000279452407    0.1000
     30 H30       -15.7124   -2.4119   59.3411 H       1  ZINC000279452407    0.0700
     31 H31       -13.9689   -2.9819   61.8039 H       1  ZINC000279452407    0.1000
     32 H32       -14.5134   -4.1275   60.5337 H       1  ZINC000279452407    0.1000
     33 H33       -11.7013   -2.0158   61.4702 H       1  ZINC000279452407    0.1200
     34 H34       -11.6237   -3.7784   61.2086 H       1  ZINC000279452407    0.0800
     35 H35       -10.3962   -1.1070   61.8485 H       1  ZINC000279452407    0.4000
     36 H36        -7.6230   -0.4213   61.2364 H       1  ZINC000279452407    0.1000
     37 H37        -8.7916    0.9112   61.0721 H       1  ZINC000279452407    0.0900
     38 H38        -9.7755    1.9052   63.2080 H       1  ZINC000279452407    0.1600
     39 H39        -9.4368    1.9084   65.7314 H       1  ZINC000279452407    0.1600
     40 H40        -9.1280   -1.9174   67.5336 H       1  ZINC000279452407    0.4200
     41 H41        -9.5075   -0.7104   68.6390 H       1  ZINC000279452407    0.4200
     42 H42        -9.6487   -3.0861   57.9741 H       1  ZINC000279452407    0.0900
     43 H43       -10.2962   -4.4838   58.8729 H       1  ZINC000279452407    0.0900
     44 H44       -11.9017   -2.2835   57.4918 H       1  ZINC000279452407    0.0600
     45 H45       -11.8126   -3.9987   57.0206 H       1  ZINC000279452407    0.1100
@<TRIPOS>BOND
     1     1     2    1
     2     1    26    1
     3     1    27    1
     4     1    28    1
     5     2     3    1
     6     2     7    1
     7     2     4    1
     8     4     5    1
     9     5     6    1
    10     5    29    1
    11     5    30    1
    12     6     7    1
    13     6    31    1
    14     6    32    1
    15     7    25    1
    16     7     8    1
    17     8     9    1
    18     8    33    1
    19     8    34    1
    20     9    10   am
    21     9    23    1
    22    10    11    2
    23    10    12   am
    24    12    13    1
    25    12    35    1
    26    13    14    1
    27    13    36    1
    28    13    37    1
    29    14    22    1
    30    14    15    2
    31    15    16    1
    32    15    38    1
    33    16    17    2
    34    16    39    1
    35    17    18    1
    36    17    22    1
    37    18    19   am
    38    18    20    2
    39    18    21    2
    40    19    40    1
    41    19    41    1
    42    23    24    1
    43    23    42    1
    44    23    43    1
    45    24    25    1
    46    24    44    1
    47    24    45    1
@<TRIPOS>SUBSTRUCTURE
     1 ZINC000279452407        1 TEMP              0 ****  ****    0 ROOT


##########                                Name:    ZINC000489403631
##########                DOCK_Rotatable_Bonds:                   7
##########                         Heavy_Atoms:                  28
##########                    Molecular_Weight:             381.391
##########                DOCK_Rotatable_Bonds:                   7
##########                       Formal_Charge:          -0.0300003
##########                     HBond_Acceptors:                   9
##########                        HBond_Donors:                   1
##########                         Heavy_Atoms:                  28
##########                          Grid_Score:          -32.572243
##########                     Grid_vdw_energy:          -30.533745
##########                      Grid_es_energy:           -2.038496
##########           Internal_energy_repulsive:           11.258679

@<TRIPOS>MOLECULE
ZINC000489403631
 47 49 1 0 0
SMALL
USER_CHARGES


@<TRIPOS>ATOM
      1 C1         -6.2065    3.0711   54.7337 C.3     1  ZINC000489403631   -0.1100
      2 C2         -6.0606    2.5263   53.3363 C.ar    1  ZINC000489403631   -0.0800
      3 C3         -4.8038    2.3234   52.8023 C.ar    1  ZINC000489403631   -0.0900
      4 C4         -4.6696    1.8213   51.5144 C.ar    1  ZINC000489403631    0.1200
      5 N5         -3.3945    1.6148   50.9723 N.am    1  ZINC000489403631   -0.6600
      6 C6         -2.9573    2.3931   49.9626 C.2     1  ZINC000489403631    0.5100
      7 O7         -3.6679    3.2725   49.5232 O.2     1  ZINC000489403631   -0.4600
      8 C8         -1.5856    2.1709   49.3794 C.3     1  ZINC000489403631    0.1700
      9 C9         -0.7915    3.4777   49.4314 C.3     1  ZINC000489403631   -0.1700
     10 C10        -0.8550    1.0977   50.1887 C.3     1  ZINC000489403631   -0.1700
     11 N11        -1.7120    1.7314   47.9876 N.pl3   1  ZINC000489403631   -0.3400
     12 C12        -1.4652    0.4892   47.5218 C.2     1  ZINC000489403631    0.1500
     13 C13        -1.6988    0.4944   46.1890 C.2     1  ZINC000489403631   -0.1900
     14 N14        -1.5538   -0.6607   45.2749 N.pl3   1  ZINC000489403631    0.0700
     15 O15        -1.1973   -1.7409   45.7103 O.2     1  ZINC000489403631   -0.1700
     16 O16        -1.7911   -0.5309   44.0872 O.2     1  ZINC000489403631   -0.1600
     17 C17        -2.1020    1.7841   45.8278 C.2     1  ZINC000489403631    0.1000
     18 N18        -2.1162    2.5249   46.9062 N.2     1  ZINC000489403631   -0.2200
     19 C19        -5.7995    1.5238   50.7646 C.ar    1  ZINC000489403631   -0.1100
     20 C20        -7.0562    1.7272   51.2999 C.ar    1  ZINC000489403631   -0.1700
     21 C21        -7.1897    2.2234   52.5884 C.ar    1  ZINC000489403631    0.1000
     22 O22        -8.4272    2.4235   53.1148 O.3     1  ZINC000489403631   -0.2500
     23 C23        -9.2513    1.3514   53.2305 C.ar    1  ZINC000489403631    0.1400
     24 C24        -8.8157    0.1784   53.8427 C.ar    1  ZINC000489403631   -0.2000
     25 C25        -9.6839   -0.8893   53.9407 C.ar    1  ZINC000489403631    0.1200
     26 N26       -10.9116   -0.8087   53.4635 N.ar    1  ZINC000489403631   -0.4900
     27 C27       -11.3608    0.2849   52.8772 C.ar    1  ZINC000489403631    0.1200
     28 C28       -10.5561    1.3978   52.7453 C.ar    1  ZINC000489403631   -0.1800
     29 H29        -6.2326    2.2454   55.4447 H       1  ZINC000489403631    0.0700
     30 H30        -5.3604    3.7196   54.9610 H       1  ZINC000489403631    0.0700
     31 H31        -7.1319    3.6424   54.8062 H       1  ZINC000489403631    0.0700
     32 H32        -3.9252    2.5554   53.3859 H       1  ZINC000489403631    0.1500
     33 H33        -2.8262    0.9115   51.3236 H       1  ZINC000489403631    0.4100
     34 H34        -0.6975    3.8048   50.4670 H       1  ZINC000489403631    0.1000
     35 H35         0.2006    3.3170   49.0096 H       1  ZINC000489403631    0.0900
     36 H36        -1.3120    4.2424   48.8547 H       1  ZINC000489403631    0.0800
     37 H37        -1.4207    0.1667   50.1518 H       1  ZINC000489403631    0.0800
     38 H38         0.1371    0.9370   49.7669 H       1  ZINC000489403631    0.0900
     39 H39        -0.7610    1.4247   51.2243 H       1  ZINC000489403631    0.0900
     40 H40        -1.1393   -0.3575   48.1078 H       1  ZINC000489403631    0.2000
     41 H41        -2.3617    2.1108   44.8318 H       1  ZINC000489403631    0.2100
     42 H42        -5.6957    1.1336   49.7630 H       1  ZINC000489403631    0.1300
     43 H43        -7.9353    1.4957   50.7167 H       1  ZINC000489403631    0.1300
     44 H44        -7.8121    0.1057   54.2349 H       1  ZINC000489403631    0.1400
     45 H45        -9.3545   -1.8028   54.4134 H       1  ZINC000489403631    0.1600
     46 H46       -12.3723    0.3104   52.4995 H       1  ZINC000489403631    0.1700
     47 H47       -10.9300    2.2898   52.2646 H       1  ZINC000489403631    0.1500
@<TRIPOS>BOND
     1     1     2    1
     2     1    29    1
     3     1    30    1
     4     1    31    1
     5     2    21   ar
     6     2     3   ar
     7     3     4   ar
     8     3    32    1
     9     4     5    1
    10     4    19   ar
    11     5     6   am
    12     5    33    1
    13     6     7    2
    14     6     8    1
    15     8     9    1
    16     8    10    1
    17     8    11    1
    18     9    34    1
    19     9    35    1
    20     9    36    1
    21    10    37    1
    22    10    38    1
    23    10    39    1
    24    11    18    1
    25    11    12    1
    26    12    13    2
    27    12    40    1
    28    13    14    1
    29    13    17    1
    30    14    15    2
    31    14    16    2
    32    17    18    2
    33    17    41    1
    34    19    20   ar
    35    19    42    1
    36    20    21   ar
    37    20    43    1
    38    21    22    1
    39    22    23    1
    40    23    28   ar
    41    23    24   ar
    42    24    25   ar
    43    24    44    1
    44    25    26   ar
    45    25    45    1
    46    26    27   ar
    47    27    28   ar
    48    27    46    1
    49    28    47    1
@<TRIPOS>SUBSTRUCTURE
     1 ZINC000489403631        1 TEMP              0 ****  ****    0 ROOT


##########                                Name:    ZINC000533131987
##########                DOCK_Rotatable_Bonds:                  11
##########                         Heavy_Atoms:                  30
##########                    Molecular_Weight:             419.403
##########                DOCK_Rotatable_Bonds:                  11
##########                       Formal_Charge:                0.01
##########                     HBond_Acceptors:                   9
##########                        HBond_Donors:                   3
##########                         Heavy_Atoms:                  30
##########                          Grid_Score:          -32.545502
##########                     Grid_vdw_energy:          -30.818491
##########                      Grid_es_energy:           -1.727012
##########           Internal_energy_repulsive:           27.456121

@<TRIPOS>MOLECULE
ZINC000533131987
 50 52 1 0 0
SMALL
USER_CHARGES


@<TRIPOS>ATOM
      1 O1         -3.8987    2.7172   48.7965 O.2     1  ZINC000533131987   -0.5700
      2 C2         -3.1994    1.7582   49.0607 C.2     1  ZINC000533131987    0.7100
      3 N3         -2.3492    1.2690   48.1363 N.am    1  ZINC000533131987   -0.7400
      4 C4         -2.2719    1.8890   46.8113 C.3     1  ZINC000533131987    0.1400
      5 C5         -1.0886    1.2999   46.0408 C.3     1  ZINC000533131987   -0.0900
      6 H6         -0.8660    0.3036   46.4231 H       1  ZINC000533131987    0.0900
      7 C7         -1.4420    1.2089   44.5550 C.3     1  ZINC000533131987    0.0800
      8 O8         -1.6916   -0.1545   44.2074 O.3     1  ZINC000533131987   -0.5600
      9 C9          0.1356    2.2001   46.2198 C.3     1  ZINC000533131987   -0.0900
     10 C10         1.2096    1.7867   45.2468 C.ar    1  ZINC000533131987    0.0000
     11 C11         1.7593    0.5207   45.3211 C.ar    1  ZINC000533131987   -0.1100
     12 C12         2.7446    0.1415   44.4285 C.ar    1  ZINC000533131987   -0.0800
     13 C13         3.1796    1.0282   43.4616 C.ar    1  ZINC000533131987   -0.1300
     14 C14         2.6292    2.2942   43.3868 C.ar    1  ZINC000533131987   -0.0700
     15 C15         1.6412    2.6719   44.2764 C.ar    1  ZINC000533131987   -0.1700
     16 C16         1.0411    4.0519   44.1948 C.3     1  ZINC000533131987    0.5100
     17 F17         1.5851    4.7330   43.1006 F       1  ZINC000533131987   -0.1800
     18 F18        -0.3453    3.9491   44.0377 F       1  ZINC000533131987   -0.1700
     19 F19         1.3264    4.7547   45.3704 F       1  ZINC000533131987   -0.1800
     20 N20        -3.2706    1.1879   50.2797 N.am    1  ZINC000533131987   -0.6900
     21 C21        -4.1535    1.6959   51.2396 C.ar    1  ZINC000533131987    0.1600
     22 C22        -3.8417    2.8668   51.9195 C.ar    1  ZINC000533131987   -0.1000
     23 C23        -4.7104    3.3728   52.8687 C.ar    1  ZINC000533131987   -0.1000
     24 C24        -5.8928    2.7183   53.1470 C.ar    1  ZINC000533131987   -0.1000
     25 C25        -6.2151    1.5410   52.4692 C.ar    1  ZINC000533131987    0.0000
     26 C26        -7.4816    0.8379   52.7651 C.2     1  ZINC000533131987    0.2300
     27 N27        -8.3139    0.3516   51.8749 N.2     1  ZINC000533131987   -0.4700
     28 C28        -9.3470   -0.2139   52.5175 C.2     1  ZINC000533131987   -0.0400
     29 C29        -9.1397   -0.0687   53.8390 C.2     1  ZINC000533131987   -0.0700
     30 O30        -7.9708    0.5846   53.9913 O.3     1  ZINC000533131987   -0.2000
     31 C31        -5.3416    1.0339   51.5079 C.ar    1  ZINC000533131987   -0.1000
     32 H32        -1.7886    0.5064   48.3485 H       1  ZINC000533131987    0.4000
     33 H33        -3.1946    1.6942   46.2646 H       1  ZINC000533131987    0.0700
     34 H34        -2.1348    2.9648   46.9209 H       1  ZINC000533131987    0.0800
     35 H35        -2.3336    1.8037   44.3565 H       1  ZINC000533131987    0.0400
     36 H36        -0.6117    1.5893   43.9601 H       1  ZINC000533131987    0.0600
     37 H37        -1.0171   -0.7710   44.5239 H       1  ZINC000533131987    0.3800
     38 H38        -0.1451    3.2366   46.0323 H       1  ZINC000533131987    0.0800
     39 H39         0.5115    2.1040   47.2384 H       1  ZINC000533131987    0.0900
     40 H40         1.4192   -0.1721   46.0766 H       1  ZINC000533131987    0.1300
     41 H41         3.1746   -0.8475   44.4870 H       1  ZINC000533131987    0.1300
     42 H42         3.9499    0.7322   42.7648 H       1  ZINC000533131987    0.1300
     43 H43         2.9694    2.9872   42.6315 H       1  ZINC000533131987    0.1300
     44 H44        -2.7099    0.4252   50.4919 H       1  ZINC000533131987    0.4100
     45 H45        -2.9175    3.3833   51.7061 H       1  ZINC000533131987    0.1500
     46 H46        -4.4626    4.2832   53.3942 H       1  ZINC000533131987    0.1400
     47 H47        -6.5686    3.1165   53.8894 H       1  ZINC000533131987    0.1300
     48 H48       -10.1943   -0.6993   52.0561 H       1  ZINC000533131987    0.1900
     49 H49        -9.7877   -0.4148   54.6306 H       1  ZINC000533131987    0.2200
     50 H50        -5.5856    0.1237   50.9804 H       1  ZINC000533131987    0.1400
@<TRIPOS>BOND
     1     1     2    2
     2     2     3   am
     3     2    20   am
     4     3     4    1
     5     3    32    1
     6     4     5    1
     7     4    33    1
     8     4    34    1
     9     5     6    1
    10     5     7    1
    11     5     9    1
    12     7     8    1
    13     7    35    1
    14     7    36    1
    15     8    37    1
    16     9    10    1
    17     9    38    1
    18     9    39    1
    19    10    15   ar
    20    10    11   ar
    21    11    12   ar
    22    11    40    1
    23    12    13   ar
    24    12    41    1
    25    13    14   ar
    26    13    42    1
    27    14    15   ar
    28    14    43    1
    29    15    16    1
    30    16    17    1
    31    16    18    1
    32    16    19    1
    33    20    21    1
    34    20    44    1
    35    21    31   ar
    36    21    22   ar
    37    22    23   ar
    38    22    45    1
    39    23    24   ar
    40    23    46    1
    41    24    25   ar
    42    24    47    1
    43    25    26    1
    44    25    31   ar
    45    26    30    1
    46    26    27    2
    47    27    28    1
    48    28    29    2
    49    28    48    1
    50    29    30    1
    51    29    49    1
    52    31    50    1
@<TRIPOS>SUBSTRUCTURE
     1 ZINC000533131987        1 TEMP              0 ****  ****    0 ROOT


##########                                Name:    ZINC000906038034
##########                DOCK_Rotatable_Bonds:                   5
##########                         Heavy_Atoms:                  23
##########                    Molecular_Weight:             387.428
##########                DOCK_Rotatable_Bonds:                   5
##########                       Formal_Charge:         -0.00999987
##########                     HBond_Acceptors:                  12
##########                        HBond_Donors:                   0
##########                         Heavy_Atoms:                  23
##########                          Grid_Score:          -32.535561
##########                     Grid_vdw_energy:          -32.081821
##########                      Grid_es_energy:           -0.453738
##########           Internal_energy_repulsive:            4.345649

@<TRIPOS>MOLECULE
ZINC000906038034
 35 36 1 0 0
SMALL
USER_CHARGES


@<TRIPOS>ATOM
      1 C1        -10.0502    0.2783   52.9874 C.3     1  ZINC000906038034    0.1000
      2 N2         -8.6231    0.5670   52.8250 N.pl3   1  ZINC000906038034   -0.3700
      3 C3         -7.6594    0.3408   53.7441 C.2     1  ZINC000906038034    0.0600
      4 C4         -6.4805    0.7390   53.2200 C.2     1  ZINC000906038034   -0.2500
      5 C5         -6.7289    1.2317   51.9222 C.2     1  ZINC000906038034    0.1200
      6 C6         -5.7179    1.7718   50.9877 C.2     1  ZINC000906038034    0.1500
      7 N7         -4.4463    1.8963   51.2394 N.2     1  ZINC000906038034   -0.4300
      8 C8         -3.6953    2.3981   50.2855 C.2     1  ZINC000906038034    0.0600
      9 C9         -2.2104    2.5916   50.4543 C.3     1  ZINC000906038034   -0.5300
     10 S10        -1.3379    1.1104   49.8751 S.o2    1  ZINC000906038034    2.4200
     11 O11        -0.2326    0.8705   50.7353 O.2     1  ZINC000906038034   -0.9100
     12 O12        -2.2905    0.0771   49.6648 O.2     1  ZINC000906038034   -0.9200
     13 C13        -0.7083    1.6527   48.2626 C.3     1  ZINC000906038034   -0.6100
     14 C14        -1.4184    0.8778   47.1508 C.3     1  ZINC000906038034   -0.4500
     15 S15        -0.3096    0.7141   45.7245 S.o     1  ZINC000906038034    1.3300
     16 O16        -0.0217    2.0022   45.1981 O.2     1  ZINC000906038034   -0.7600
     17 C17        -1.3124   -0.2158   44.5328 C.3     1  ZINC000906038034    0.1200
     18 F18        -2.4711    0.5085   44.2326 F       1  ZINC000906038034   -0.1900
     19 F19        -0.5743   -0.4209   43.3621 F       1  ZINC000906038034   -0.1700
     20 F20        -1.6650   -1.4521   45.0844 F       1  ZINC000906038034   -0.1600
     21 C21        -4.3299    2.7260   49.1558 C.2     1  ZINC000906038034   -0.2300
     22 S22        -6.0391    2.3432   49.3524 S.3     1  ZINC000906038034    0.1600
     23 N23        -8.0210    1.1199   51.6876 N.2     1  ZINC000906038034   -0.2400
     24 H24       -10.2566   -0.7364   52.6470 H       1  ZINC000906038034    0.0800
     25 H25       -10.3224    0.3712   54.0388 H       1  ZINC000906038034    0.0900
     26 H26       -10.6334    0.9853   52.3973 H       1  ZINC000906038034    0.0900
     27 H27        -7.8062   -0.0839   54.7262 H       1  ZINC000906038034    0.1800
     28 H28        -5.5184    0.6896   53.7081 H       1  ZINC000906038034    0.1600
     29 H29        -1.8878    3.4544   49.8716 H       1  ZINC000906038034    0.1500
     30 H30        -1.9831    2.7587   51.5071 H       1  ZINC000906038034    0.1600
     31 H31        -0.8961    2.7193   48.1392 H       1  ZINC000906038034    0.1500
     32 H32         0.3639    1.4642   48.2091 H       1  ZINC000906038034    0.1500
     33 H33        -1.6905   -0.1128   47.5151 H       1  ZINC000906038034    0.1600
     34 H34        -2.3186    1.4147   46.8516 H       1  ZINC000906038034    0.1300
     35 H35        -3.8733    3.1487   48.2729 H       1  ZINC000906038034    0.1900
@<TRIPOS>BOND
     1     1     2    1
     2     1    24    1
     3     1    25    1
     4     1    26    1
     5     2    23    1
     6     2     3    1
     7     3     4    2
     8     3    27    1
     9     4     5    1
    10     4    28    1
    11     5     6    1
    12     5    23    2
    13     6    22    1
    14     6     7    2
    15     7     8    1
    16     8     9    1
    17     8    21    2
    18     9    10    1
    19     9    29    1
    20     9    30    1
    21    10    11    2
    22    10    12    2
    23    10    13    1
    24    13    14    1
    25    13    31    1
    26    13    32    1
    27    14    15    1
    28    14    33    1
    29    14    34    1
    30    15    16    2
    31    15    17    1
    32    17    18    1
    33    17    19    1
    34    17    20    1
    35    21    22    1
    36    21    35    1
@<TRIPOS>SUBSTRUCTURE
     1 ZINC000906038034        1 TEMP              0 ****  ****    0 ROOT


##########                                Name:    ZINC000179496896
##########                DOCK_Rotatable_Bonds:                   8
##########                         Heavy_Atoms:                  27
##########                    Molecular_Weight:             396.504
##########                DOCK_Rotatable_Bonds:                   8
##########                       Formal_Charge:          0.00999944
##########                     HBond_Acceptors:                   8
##########                        HBond_Donors:                   1
##########                         Heavy_Atoms:                  27
##########                          Grid_Score:          -32.519421
##########                     Grid_vdw_energy:          -31.112278
##########                      Grid_es_energy:           -1.407143
##########           Internal_energy_repulsive:           22.364796

@<TRIPOS>MOLECULE
ZINC000179496896
 53 55 1 0 0
SMALL
USER_CHARGES


@<TRIPOS>ATOM
      1 C1        -11.3685    0.1941   54.8025 C.3     1  ZINC000179496896   -0.1500
      2 C2         -9.9846    0.3037   54.1592 C.3     1  ZINC000179496896   -0.1100
      3 C3         -9.0342   -0.6965   54.8204 C.3     1  ZINC000179496896   -0.1400
      4 C4        -10.0910   -0.0053   52.6646 C.3     1  ZINC000179496896    0.1200
      5 N5         -8.7630    0.0821   52.0521 N.pl3   1  ZINC000179496896   -0.3300
      6 N6         -7.9065   -0.9953   51.7995 N.2     1  ZINC000179496896   -0.2700
      7 C7         -6.8133   -0.5457   51.2480 C.2     1  ZINC000179496896    0.0800
      8 C8         -6.9306    0.8569   51.1250 C.2     1  ZINC000179496896   -0.2500
      9 C9         -5.9259    1.7725   50.5541 C.2     1  ZINC000179496896    0.5900
     10 O10        -5.9893    2.9648   50.7845 O.2     1  ZINC000179496896   -0.5300
     11 N11        -4.9371    1.2880   49.7769 N.am    1  ZINC000179496896   -0.7100
     12 C12        -3.9398    2.1981   49.2082 C.3     1  ZINC000179496896    0.1300
     13 C13        -2.6059    1.4637   49.0587 C.3     1  ZINC000179496896    0.0700
     14 H14        -2.7469    0.4057   49.2795 H       1  ZINC000179496896    0.0900
     15 C15        -2.0945    1.6217   47.6253 C.3     1  ZINC000179496896   -0.1900
     16 N16        -1.6261    2.0327   49.9936 N.3     1  ZINC000179496896   -0.5300
     17 C17        -1.1718    3.3551   49.5404 C.3     1  ZINC000179496896    0.0600
     18 C18        -0.4841    4.0759   50.7062 C.3     1  ZINC000179496896   -0.0400
     19 C19         0.5140    3.1207   51.3259 C.2     1  ZINC000179496896   -0.1700
     20 C20         0.5228    1.7915   51.1027 C.2     1  ZINC000179496896   -0.1100
     21 C21         1.5342    1.1191   51.7791 C.2     1  ZINC000179496896   -0.1200
     22 C22         2.3260    1.8772   52.5324 C.2     1  ZINC000179496896   -0.2200
     23 S23         1.8143    3.5554   52.4230 S.3     1  ZINC000179496896    0.1000
     24 C24        -0.4936    1.1179   50.1906 C.3     1  ZINC000179496896    0.1200
     25 C25        -8.1649    1.2088   51.6333 C.2     1  ZINC000179496896    0.0700
     26 C26        -8.7323    2.6026   51.7129 C.3     1  ZINC000179496896    0.3400
     27 F27        -7.9034    3.3988   52.5105 F       1  ZINC000179496896   -0.1500
     28 F28        -8.8077    3.1495   50.4274 F       1  ZINC000179496896   -0.2000
     29 H29       -11.2926    0.4142   55.8674 H       1  ZINC000179496896    0.0600
     30 H30       -12.0455    0.9067   54.3314 H       1  ZINC000179496896    0.0600
     31 H31       -11.7531   -0.8167   54.6670 H       1  ZINC000179496896    0.0600
     32 H32        -9.6000    1.3146   54.2948 H       1  ZINC000179496896    0.0800
     33 H33        -9.4188   -1.7073   54.6848 H       1  ZINC000179496896    0.0600
     34 H34        -8.0482   -0.6183   54.3621 H       1  ZINC000179496896    0.0600
     35 H35        -8.9583   -0.4764   55.8852 H       1  ZINC000179496896    0.0700
     36 H36       -10.4882   -1.0112   52.5288 H       1  ZINC000179496896    0.1000
     37 H37       -10.7576    0.7155   52.1911 H       1  ZINC000179496896    0.1000
     38 H38        -5.9666   -1.1412   50.9396 H       1  ZINC000179496896    0.2000
     39 H39        -4.8858    0.3368   49.5940 H       1  ZINC000179496896    0.4100
     40 H40        -4.2771    2.5415   48.2303 H       1  ZINC000179496896    0.0700
     41 H41        -3.8107    3.0548   49.8696 H       1  ZINC000179496896    0.0700
     42 H42        -1.1443    1.0986   47.5188 H       1  ZINC000179496896    0.0600
     43 H43        -2.8216    1.1996   46.9316 H       1  ZINC000179496896    0.0700
     44 H44        -1.9536    2.6798   47.4045 H       1  ZINC000179496896    0.0600
     45 H45        -0.4660    3.2359   48.7183 H       1  ZINC000179496896    0.0400
     46 H46        -2.0284    3.9395   49.2049 H       1  ZINC000179496896    0.0900
     47 H47         0.0336    4.9614   50.3376 H       1  ZINC000179496896    0.0800
     48 H48        -1.2269    4.3656   51.4495 H       1  ZINC000179496896    0.0900
     49 H49         1.6681    0.0505   51.6983 H       1  ZINC000179496896    0.1400
     50 H50         3.1566    1.5168   53.1213 H       1  ZINC000179496896    0.1600
     51 H51        -0.8447    0.1952   50.6525 H       1  ZINC000179496896    0.0900
     52 H52        -0.0312    0.8958   49.2289 H       1  ZINC000179496896    0.0500
     53 H53        -9.7299    2.5645   52.1505 H       1  ZINC000179496896    0.1300
@<TRIPOS>BOND
     1     1     2    1
     2     1    29    1
     3     1    30    1
     4     1    31    1
     5     2     3    1
     6     2     4    1
     7     2    32    1
     8     3    33    1
     9     3    34    1
    10     3    35    1
    11     4     5    1
    12     4    36    1
    13     4    37    1
    14     5    25    1
    15     5     6    1
    16     6     7    2
    17     7     8    1
    18     7    38    1
    19     8     9    1
    20     8    25    2
    21     9    10    2
    22     9    11   am
    23    11    12    1
    24    11    39    1
    25    12    13    1
    26    12    40    1
    27    12    41    1
    28    13    14    1
    29    13    15    1
    30    13    16    1
    31    15    42    1
    32    15    43    1
    33    15    44    1
    34    16    24    1
    35    16    17    1
    36    17    18    1
    37    17    45    1
    38    17    46    1
    39    18    19    1
    40    18    47    1
    41    18    48    1
    42    19    23    1
    43    19    20    2
    44    20    21    1
    45    20    24    1
    46    21    22    2
    47    21    49    1
    48    22    23    1
    49    22    50    1
    50    24    51    1
    51    24    52    1
    52    25    26    1
    53    26    27    1
    54    26    28    1
    55    26    53    1
@<TRIPOS>SUBSTRUCTURE
     1 ZINC000179496896        1 TEMP              0 ****  ****    0 ROOT


##########                                Name:    ZINC000440379747
##########                DOCK_Rotatable_Bonds:                   8
##########                         Heavy_Atoms:                  27
##########                    Molecular_Weight:             394.452
##########                DOCK_Rotatable_Bonds:                   8
##########                       Formal_Charge:           0.0199995
##########                     HBond_Acceptors:                  10
##########                        HBond_Donors:                   3
##########                         Heavy_Atoms:                  27
##########                          Grid_Score:          -32.495602
##########                     Grid_vdw_energy:          -30.936483
##########                      Grid_es_energy:           -1.559119
##########           Internal_energy_repulsive:           22.654074

@<TRIPOS>MOLECULE
ZINC000440379747
 49 51 1 0 0
SMALL
USER_CHARGES


@<TRIPOS>ATOM
      1 C1        -10.1817    2.0030   67.6119 C.3     1  ZINC000440379747   -0.1800
      2 C2        -10.6292    1.6535   66.2160 C.2     1  ZINC000440379747    0.5200
      3 O3        -11.7417    1.9592   65.8414 O.2     1  ZINC000440379747   -0.5200
      4 N4         -9.7935    1.0011   65.3839 N.am    1  ZINC000440379747   -0.5500
      5 C5         -8.4311    0.5804   65.7213 C.3     1  ZINC000440379747    0.1100
      6 C6         -7.8985   -0.1145   64.4577 C.3     1  ZINC000440379747   -0.0900
      7 C7         -9.0385   -0.0315   63.4676 C.ar    1  ZINC000440379747   -0.1100
      8 C8         -9.1414   -0.4843   62.1675 C.ar    1  ZINC000440379747   -0.0700
      9 C9        -10.3145   -0.2841   61.4509 C.ar    1  ZINC000440379747    0.1200
     10 N10       -10.4206   -0.7424   60.1342 N.am    1  ZINC000440379747   -0.6400
     11 C11       -10.7300   -2.0317   59.8923 C.2     1  ZINC000440379747    0.5100
     12 O12       -10.9166   -2.7950   60.8176 O.2     1  ZINC000440379747   -0.4900
     13 C13       -10.8433   -2.5213   58.4860 C.2     1  ZINC000440379747    0.5200
     14 O14        -9.8939   -2.4345   57.7349 O.2     1  ZINC000440379747   -0.5100
     15 N15       -11.9998   -3.0595   58.0509 N.am    1  ZINC000440379747   -0.5800
     16 C16       -12.2484   -3.5799   56.6941 C.3     1  ZINC000440379747    0.1000
     17 C17       -13.4014   -4.6000   56.8659 C.3     1  ZINC000440379747   -0.1300
     18 C18       -14.2714   -3.9077   57.9481 C.3     1  ZINC000440379747   -0.1600
     19 C19       -13.2202   -3.2307   58.8526 C.3     1  ZINC000440379747    0.1500
     20 H20       -13.0156   -3.8604   59.7185 H       1  ZINC000440379747    0.1000
     21 C21       -13.7321   -1.8642   59.3126 C.3     1  ZINC000440379747   -0.6500
     22 S22       -15.2265   -2.0851   60.3169 S.o2    1  ZINC000440379747    2.6200
     23 N23       -14.8032   -3.2236   61.4425 N.am    1  ZINC000440379747   -1.2500
     24 O24       -15.4903   -0.9170   61.0820 O.2     1  ZINC000440379747   -0.9500
     25 O25       -16.2512   -2.7091   59.5555 O.2     1  ZINC000440379747   -0.9500
     26 C26       -11.3821    0.3735   62.0492 C.ar    1  ZINC000440379747   -0.1000
     27 C27       -11.2773    0.8245   63.3469 C.ar    1  ZINC000440379747   -0.1400
     28 C28       -10.1020    0.6205   64.0728 C.ar    1  ZINC000440379747    0.1400
     29 H29       -10.9857    2.5240   68.1315 H       1  ZINC000440379747    0.1000
     30 H30        -9.9312    1.0902   68.1524 H       1  ZINC000440379747    0.1000
     31 H31        -9.3042    2.6477   67.5613 H       1  ZINC000440379747    0.1000
     32 H32        -7.8167    1.4477   65.9633 H       1  ZINC000440379747    0.0900
     33 H33        -8.4473   -0.1176   66.5583 H       1  ZINC000440379747    0.0900
     34 H34        -7.0236    0.4112   64.0750 H       1  ZINC000440379747    0.0900
     35 H35        -7.6548   -1.1553   64.6705 H       1  ZINC000440379747    0.1000
     36 H36        -8.3085   -0.9946   61.7068 H       1  ZINC000440379747    0.1400
     37 H37       -10.2714   -0.1326   59.3948 H       1  ZINC000440379747    0.4200
     38 H38       -12.5524   -2.7725   56.0280 H       1  ZINC000440379747    0.0800
     39 H39       -11.3574   -4.0756   56.3088 H       1  ZINC000440379747    0.1000
     40 H40       -13.9575   -4.7214   55.9363 H       1  ZINC000440379747    0.1000
     41 H41       -13.0249   -5.5590   57.2221 H       1  ZINC000440379747    0.0800
     42 H42       -14.9313   -3.1670   57.4966 H       1  ZINC000440379747    0.1000
     43 H43       -14.8446   -4.6441   58.5114 H       1  ZINC000440379747    0.1000
     44 H44       -12.9641   -1.3700   59.9076 H       1  ZINC000440379747    0.1500
     45 H45       -13.9668   -1.2523   58.4417 H       1  ZINC000440379747    0.1400
     46 H46       -15.4495   -3.5148   62.1047 H       1  ZINC000440379747    0.4100
     47 H47       -13.9089   -3.5993   61.4398 H       1  ZINC000440379747    0.4200
     48 H48       -12.2959    0.5317   61.4959 H       1  ZINC000440379747    0.1400
     49 H49       -12.1104    1.3353   63.8066 H       1  ZINC000440379747    0.1500
@<TRIPOS>BOND
     1     1     2    1
     2     1    29    1
     3     1    30    1
     4     1    31    1
     5     2     3    2
     6     2     4   am
     7     4    28    1
     8     4     5    1
     9     5     6    1
    10     5    32    1
    11     5    33    1
    12     6     7    1
    13     6    34    1
    14     6    35    1
    15     7    28   ar
    16     7     8   ar
    17     8     9   ar
    18     8    36    1
    19     9    10    1
    20     9    26   ar
    21    10    11   am
    22    10    37    1
    23    11    12    2
    24    11    13    1
    25    13    14    2
    26    13    15   am
    27    15    19    1
    28    15    16    1
    29    16    17    1
    30    16    38    1
    31    16    39    1
    32    17    18    1
    33    17    40    1
    34    17    41    1
    35    18    19    1
    36    18    42    1
    37    18    43    1
    38    19    20    1
    39    19    21    1
    40    21    22    1
    41    21    44    1
    42    21    45    1
    43    22    23   am
    44    22    24    2
    45    22    25    2
    46    23    46    1
    47    23    47    1
    48    26    27   ar
    49    26    48    1
    50    27    28   ar
    51    27    49    1
@<TRIPOS>SUBSTRUCTURE
     1 ZINC000440379747        1 TEMP              0 ****  ****    0 ROOT


##########                                Name:    ZINC000482187991
##########                DOCK_Rotatable_Bonds:                  11
##########                         Heavy_Atoms:                  29
##########                    Molecular_Weight:             407.414
##########                DOCK_Rotatable_Bonds:                  11
##########                       Formal_Charge:           0.0299996
##########                     HBond_Acceptors:                   8
##########                        HBond_Donors:                   1
##########                         Heavy_Atoms:                  29
##########                          Grid_Score:          -32.489849
##########                     Grid_vdw_energy:          -32.033104
##########                      Grid_es_energy:           -0.456746
##########           Internal_energy_repulsive:           15.977423

@<TRIPOS>MOLECULE
ZINC000482187991
 52 53 1 0 0
SMALL
USER_CHARGES


@<TRIPOS>ATOM
      1 C1        -15.1823   -1.4457   54.9618 C.3     1  ZINC000482187991    0.0200
      2 O2        -14.3949   -2.6293   55.1077 O.3     1  ZINC000482187991   -0.3000
      3 C3        -13.1470   -2.4803   55.6276 C.ar    1  ZINC000482187991    0.1400
      4 C4        -12.2890   -1.5344   55.1017 C.ar    1  ZINC000482187991   -0.1700
      5 C5        -11.0048   -1.3816   55.6378 C.ar    1  ZINC000482187991   -0.1000
      6 C6        -10.0896   -0.3766   55.0817 C.2     1  ZINC000482187991    0.4000
      7 O7        -10.2404    0.7964   55.3517 O.2     1  ZINC000482187991   -0.4500
      8 C8         -8.9632   -0.8024   54.1757 C.3     1  ZINC000482187991   -0.1500
      9 C9         -9.1842   -0.2194   52.7786 C.3     1  ZINC000482187991   -0.1300
     10 C10        -7.8526   -0.0146   52.1033 C.2     1  ZINC000482187991    0.5200
     11 O11        -7.1031   -0.9545   51.9429 O.2     1  ZINC000482187991   -0.5200
     12 N12        -7.4945    1.2131   51.6778 N.am    1  ZINC000482187991   -0.7200
     13 C13        -6.1993    1.4125   51.0229 C.3     1  ZINC000482187991    0.1500
     14 H14        -5.7590    0.4439   50.7861 H       1  ZINC000482187991    0.1300
     15 C15        -5.2804    2.1693   51.9470 C.ar    1  ZINC000482187991   -0.1100
     16 C16        -4.0309    2.5650   51.5078 C.ar    1  ZINC000482187991   -0.1000
     17 C17        -3.1881    3.2592   52.3555 C.ar    1  ZINC000482187991   -0.1200
     18 C18        -3.5949    3.5580   53.6424 C.ar    1  ZINC000482187991   -0.1100
     19 C19        -4.8448    3.1630   54.0814 C.ar    1  ZINC000482187991   -0.1200
     20 C20        -5.6893    2.4726   53.2323 C.ar    1  ZINC000482187991   -0.1000
     21 C21        -6.3974    2.2118   49.7335 C.3     1  ZINC000482187991    0.2500
     22 F22        -6.4723    3.5754   50.0370 F       1  ZINC000482187991   -0.1900
     23 F23        -5.3180    1.9841   48.8731 F       1  ZINC000482187991   -0.2000
     24 C24       -10.5951   -2.1889   56.7059 C.ar    1  ZINC000482187991   -0.1900
     25 C25       -11.4587   -3.1328   57.2266 C.ar    1  ZINC000482187991    0.1400
     26 O26       -11.0620   -3.9172   58.2643 O.3     1  ZINC000482187991   -0.3000
     27 C27       -11.1931   -3.3704   59.5780 C.3     1  ZINC000482187991    0.0200
     28 C28       -12.7378   -3.2783   56.6939 C.ar    1  ZINC000482187991    0.0600
     29 O29       -13.5845   -4.2074   57.2088 O.3     1  ZINC000482187991   -0.3100
     30 C30       -13.3411   -5.5714   56.8592 C.3     1  ZINC000482187991    0.0400
     31 H31       -16.1523   -1.7046   54.5374 H       1  ZINC000482187991    0.1100
     32 H32       -15.3250   -0.9816   55.9377 H       1  ZINC000482187991    0.0600
     33 H33       -14.6702   -0.7480   54.2991 H       1  ZINC000482187991    0.0600
     34 H34       -12.6083   -0.9136   54.2776 H       1  ZINC000482187991    0.1500
     35 H35        -8.0172   -0.4378   54.5761 H       1  ZINC000482187991    0.1100
     36 H36        -8.9369   -1.8904   54.1154 H       1  ZINC000482187991    0.1100
     37 H37        -9.7885   -0.9086   52.1886 H       1  ZINC000482187991    0.1000
     38 H38        -9.7004    0.7370   52.8613 H       1  ZINC000482187991    0.1000
     39 H39        -8.0945    1.9646   51.8050 H       1  ZINC000482187991    0.4100
     40 H40        -3.7131    2.3316   50.5023 H       1  ZINC000482187991    0.1200
     41 H41        -2.2116    3.5678   52.0125 H       1  ZINC000482187991    0.1300
     42 H42        -2.9361    4.0997   54.3049 H       1  ZINC000482187991    0.1300
     43 H43        -5.1625    3.3961   55.0869 H       1  ZINC000482187991    0.1300
     44 H44        -6.6658    2.1641   53.5753 H       1  ZINC000482187991    0.1300
     45 H45        -7.3213    1.8962   49.2487 H       1  ZINC000482187991    0.1200
     46 H46        -9.6051   -2.0741   57.1218 H       1  ZINC000482187991    0.1500
     47 H47       -10.5975   -2.4606   59.6540 H       1  ZINC000482187991    0.0600
     48 H48       -12.2401   -3.1364   59.7714 H       1  ZINC000482187991    0.0600
     49 H49       -10.8419   -4.0969   60.3107 H       1  ZINC000482187991    0.1100
     50 H50       -13.4037   -5.6859   55.7771 H       1  ZINC000482187991    0.0500
     51 H51       -12.3465   -5.8615   57.1983 H       1  ZINC000482187991    0.0500
     52 H52       -14.0872   -6.2073   57.3357 H       1  ZINC000482187991    0.1000
@<TRIPOS>BOND
     1     1     2    1
     2     1    31    1
     3     1    32    1
     4     1    33    1
     5     2     3    1
     6     3    28   ar
     7     3     4   ar
     8     4     5   ar
     9     4    34    1
    10     5     6    1
    11     5    24   ar
    12     6     7    2
    13     6     8    1
    14     8     9    1
    15     8    35    1
    16     8    36    1
    17     9    10    1
    18     9    37    1
    19     9    38    1
    20    10    11    2
    21    10    12   am
    22    12    13    1
    23    12    39    1
    24    13    14    1
    25    13    15    1
    26    13    21    1
    27    15    20   ar
    28    15    16   ar
    29    16    17   ar
    30    16    40    1
    31    17    18   ar
    32    17    41    1
    33    18    19   ar
    34    18    42    1
    35    19    20   ar
    36    19    43    1
    37    20    44    1
    38    21    22    1
    39    21    23    1
    40    21    45    1
    41    24    25   ar
    42    24    46    1
    43    25    26    1
    44    25    28   ar
    45    26    27    1
    46    27    47    1
    47    27    48    1
    48    27    49    1
    49    28    29    1
    50    29    30    1
    51    30    50    1
    52    30    51    1
    53    30    52    1
@<TRIPOS>SUBSTRUCTURE
     1 ZINC000482187991        1 TEMP              0 ****  ****    0 ROOT


##########                                Name:    ZINC001386869844
##########                DOCK_Rotatable_Bonds:                   9
##########                         Heavy_Atoms:                  25
##########                    Molecular_Weight:             345.485
##########                DOCK_Rotatable_Bonds:                   9
##########                       Formal_Charge:          -0.0300003
##########                     HBond_Acceptors:                   5
##########                        HBond_Donors:                   2
##########                         Heavy_Atoms:                  25
##########                          Grid_Score:          -32.458195
##########                     Grid_vdw_energy:          -31.730341
##########                      Grid_es_energy:           -0.727853
##########           Internal_energy_repulsive:           29.287167

@<TRIPOS>MOLECULE
ZINC001386869844
 56 58 1 0 0
SMALL
USER_CHARGES


@<TRIPOS>ATOM
      1 C1         -8.7096    2.0045   52.0195 C.3     1  ZINC001386869844    0.0600
      2 N2         -8.5083    0.5544   52.0746 N.am    1  ZINC001386869844   -0.6200
      3 C3         -9.6241   -0.3271   52.4272 C.3     1  ZINC001386869844    0.1100
      4 C4         -9.5399   -0.6876   53.9117 C.3     1  ZINC001386869844    0.1000
      5 N5        -10.8125   -1.2690   54.3459 N.am    1  ZINC001386869844   -0.7300
      6 C6        -11.2469   -1.0746   55.6069 C.2     1  ZINC001386869844    0.5200
      7 O7        -10.5817   -0.4226   56.3836 O.2     1  ZINC001386869844   -0.5300
      8 C8        -12.5560   -1.6728   56.0535 C.3     1  ZINC001386869844   -0.1300
      9 C9        -12.2857   -2.9297   56.8829 C.3     1  ZINC001386869844   -0.0100
     10 C10       -10.9692   -3.5652   56.4315 C.3     1  ZINC001386869844   -0.1500
     11 C11       -12.1894   -2.5534   58.3627 C.3     1  ZINC001386869844   -0.1600
     12 C12       -13.4284   -3.9275   56.6837 C.3     1  ZINC001386869844   -0.1500
     13 C13       -14.2695   -4.2921   57.9087 C.3     1  ZINC001386869844   -0.1900
     14 C14       -13.2817   -5.3073   57.3284 C.3     1  ZINC001386869844   -0.1800
     15 C15        -7.2967    0.0313   51.8011 C.2     1  ZINC001386869844    0.5900
     16 O16        -7.1294   -1.1731   51.8471 O.2     1  ZINC001386869844   -0.5200
     17 C17        -6.1796    0.9140   51.4481 C.2     1  ZINC001386869844   -0.0600
     18 C18        -5.6409    1.0835   50.1884 C.2     1  ZINC001386869844   -0.0900
     19 C19        -4.6056    2.0068   50.3097 C.2     1  ZINC001386869844   -0.1700
     20 C20        -4.5260    2.3809   51.6144 C.2     1  ZINC001386869844    0.0500
     21 C21        -3.5174    3.3717   52.1453 C.3     1  ZINC001386869844   -0.0600
     22 C22        -2.4006    3.5293   51.1067 C.3     1  ZINC001386869844   -0.1100
     23 C23        -3.0156    3.8022   49.7314 C.3     1  ZINC001386869844   -0.1200
     24 C24        -3.7055    2.5320   49.2192 C.3     1  ZINC001386869844   -0.0500
     25 N25        -5.4816    1.7290   52.3126 N.pl3   1  ZINC001386869844   -0.5400
     26 H26        -8.3976    2.4508   52.9637 H       1  ZINC001386869844    0.0600
     27 H27        -8.1165    2.4229   51.2063 H       1  ZINC001386869844    0.0800
     28 H28        -9.7644    2.2186   51.8474 H       1  ZINC001386869844    0.0900
     29 H29        -9.5715   -1.2367   51.8288 H       1  ZINC001386869844    0.1000
     30 H30       -10.5667    0.1835   52.2301 H       1  ZINC001386869844    0.0900
     31 H31        -9.3342    0.2114   54.4927 H       1  ZINC001386869844    0.0700
     32 H32        -8.7389   -1.4107   54.0651 H       1  ZINC001386869844    0.0700
     33 H33       -11.3426   -1.7940   53.7259 H       1  ZINC001386869844    0.4000
     34 H34       -13.0989   -0.9475   56.6595 H       1  ZINC001386869844    0.0900
     35 H35       -13.1524   -1.9353   55.1798 H       1  ZINC001386869844    0.0900
     36 H36       -10.1552   -2.8544   56.5733 H       1  ZINC001386869844    0.0800
     37 H37       -10.7767   -4.4608   57.0224 H       1  ZINC001386869844    0.0500
     38 H38       -11.0378   -3.8334   55.3772 H       1  ZINC001386869844    0.0500
     39 H39       -13.1273   -2.1006   58.6843 H       1  ZINC001386869844    0.0500
     40 H40       -11.9969   -3.4489   58.9536 H       1  ZINC001386869844    0.0500
     41 H41       -11.3754   -1.8426   58.5046 H       1  ZINC001386869844    0.0800
     42 H42       -13.9378   -3.8731   55.7217 H       1  ZINC001386869844    0.1000
     43 H43       -14.0087   -3.8211   58.8565 H       1  ZINC001386869844    0.1000
     44 H44       -15.3321   -4.4778   57.7524 H       1  ZINC001386869844    0.0900
     45 H45       -13.6950   -6.1606   56.7905 H       1  ZINC001386869844    0.0900
     46 H46       -12.3713   -5.5043   57.8942 H       1  ZINC001386869844    0.0900
     47 H47        -5.9613    0.5928   49.2812 H       1  ZINC001386869844    0.1500
     48 H48        -4.0012    4.3340   52.3129 H       1  ZINC001386869844    0.0800
     49 H49        -3.0985    3.0029   53.0816 H       1  ZINC001386869844    0.0800
     50 H50        -1.7574    4.3628   51.3888 H       1  ZINC001386869844    0.0700
     51 H51        -1.8110    2.6135   51.0657 H       1  ZINC001386869844    0.0700
     52 H52        -3.7478    4.6055   49.8137 H       1  ZINC001386869844    0.0600
     53 H53        -2.2309    4.0959   49.0343 H       1  ZINC001386869844    0.0700
     54 H54        -2.9551    1.7819   48.9696 H       1  ZINC001386869844    0.0700
     55 H55        -4.2984    2.7672   48.3353 H       1  ZINC001386869844    0.0700
     56 H56        -5.6471    1.8182   53.2642 H       1  ZINC001386869844    0.4200
@<TRIPOS>BOND
     1     1     2    1
     2     1    26    1
     3     1    27    1
     4     1    28    1
     5     2     3    1
     6     2    15   am
     7     3     4    1
     8     3    29    1
     9     3    30    1
    10     4     5    1
    11     4    31    1
    12     4    32    1
    13     5     6   am
    14     5    33    1
    15     6     7    2
    16     6     8    1
    17     8     9    1
    18     8    34    1
    19     8    35    1
    20     9    10    1
    21     9    11    1
    22     9    12    1
    23    10    36    1
    24    10    37    1
    25    10    38    1
    26    11    39    1
    27    11    40    1
    28    11    41    1
    29    12    14    1
    30    12    13    1
    31    12    42    1
    32    13    14    1
    33    13    43    1
    34    13    44    1
    35    14    45    1
    36    14    46    1
    37    15    16    2
    38    15    17    1
    39    17    25    1
    40    17    18    2
    41    18    19    1
    42    18    47    1
    43    19    24    1
    44    19    20    2
    45    20    21    1
    46    20    25    1
    47    21    22    1
    48    21    48    1
    49    21    49    1
    50    22    23    1
    51    22    50    1
    52    22    51    1
    53    23    24    1
    54    23    52    1
    55    23    53    1
    56    24    54    1
    57    24    55    1
    58    25    56    1
@<TRIPOS>SUBSTRUCTURE
     1 ZINC001386869844        1 TEMP              0 ****  ****    0 ROOT


##########                                Name:    ZINC000523863446
##########                DOCK_Rotatable_Bonds:                  10
##########                         Heavy_Atoms:                  29
##########                    Molecular_Weight:             396.533
##########                DOCK_Rotatable_Bonds:                  10
##########                       Formal_Charge:          -0.0200008
##########                     HBond_Acceptors:                   6
##########                        HBond_Donors:                   1
##########                         Heavy_Atoms:                  29
##########                          Grid_Score:          -32.434574
##########                     Grid_vdw_energy:          -31.929331
##########                      Grid_es_energy:           -0.505244
##########           Internal_energy_repulsive:           17.585703

@<TRIPOS>MOLECULE
ZINC000523863446
 61 63 1 0 0
SMALL
USER_CHARGES


@<TRIPOS>ATOM
      1 C1         -5.4919    2.4875   53.5744 C.3     1  ZINC000523863446   -0.1700
      2 C2         -6.1790    1.4315   52.7061 C.3     1  ZINC000523863446    0.1500
      3 H3         -5.8067    0.4427   52.9739 H       1  ZINC000523863446    0.1300
      4 C4         -7.6678    1.4861   52.9327 C.2     1  ZINC000523863446    0.5100
      5 O5         -8.1785    2.4970   53.3666 O.2     1  ZINC000523863446   -0.5100
      6 N6         -8.4318    0.4115   52.6535 N.am    1  ZINC000523863446   -0.6000
      7 C7         -7.8147   -0.8102   52.1312 C.3     1  ZINC000523863446    0.0700
      8 C8         -9.8795    0.4652   52.8722 C.3     1  ZINC000523863446    0.1000
      9 C9        -10.2503   -0.4535   54.0077 C.2     1  ZINC000523863446    0.5000
     10 O10       -10.5835   -1.5969   53.7786 O.2     1  ZINC000523863446   -0.5200
     11 N11       -10.2119   -0.0044   55.2778 N.am    1  ZINC000523863446   -0.7200
     12 C12       -10.5707   -0.8980   56.3819 C.3     1  ZINC000523863446    0.1900
     13 H13       -10.2131   -1.9047   56.1655 H       1  ZINC000523863446    0.1000
     14 C14       -12.0918   -0.9214   56.5453 C.3     1  ZINC000523863446   -0.1200
     15 C15       -12.4981   -2.1489   57.3632 C.3     1  ZINC000523863446   -0.0900
     16 C16       -13.1538   -1.6969   58.6697 C.3     1  ZINC000523863446   -0.1200
     17 C17       -13.5602   -2.9243   59.4877 C.3     1  ZINC000523863446   -0.1200
     18 C18       -14.5524   -3.7672   58.6840 C.3     1  ZINC000523863446   -0.1200
     19 C19       -13.8967   -4.2192   57.3776 C.3     1  ZINC000523863446   -0.1200
     20 C20       -13.4905   -2.9918   56.5596 C.3     1  ZINC000523863446   -0.1100
     21 C21        -9.9363   -0.4024   57.6558 C.ar    1  ZINC000523863446   -0.0900
     22 C22        -9.9167    0.9508   57.9373 C.ar    1  ZINC000523863446   -0.1100
     23 C23        -9.3348    1.4054   59.1059 C.ar    1  ZINC000523863446   -0.1200
     24 C24        -8.7726    0.5066   59.9931 C.ar    1  ZINC000523863446   -0.1200
     25 C25        -8.7929   -0.8467   59.7121 C.ar    1  ZINC000523863446   -0.1200
     26 C26        -9.3787   -1.3016   58.5456 C.ar    1  ZINC000523863446   -0.1000
     27 N27        -5.8897    1.6963   51.2946 N.pl3   1  ZINC000523863446   -0.3600
     28 C28        -4.8103    1.2624   50.6105 C.2     1  ZINC000523863446    0.0600
     29 C29        -4.9156    1.7194   49.3411 C.2     1  ZINC000523863446   -0.2700
     30 C30        -6.0997    2.4578   49.2463 C.2     1  ZINC000523863446    0.0500
     31 N31        -6.6875    2.4395   50.4152 N.2     1  ZINC000523863446   -0.2900
     32 H32        -5.8641    3.4764   53.3066 H       1  ZINC000523863446    0.0700
     33 H33        -5.7070    2.2904   54.6246 H       1  ZINC000523863446    0.1000
     34 H34        -4.4150    2.4480   53.4105 H       1  ZINC000523863446    0.0800
     35 H35        -7.5294   -1.4567   52.9612 H       1  ZINC000523863446    0.0700
     36 H36        -8.5268   -1.3324   51.4921 H       1  ZINC000523863446    0.0800
     37 H37        -6.9288   -0.5506   51.5517 H       1  ZINC000523863446    0.0800
     38 H38       -10.1718    1.4857   53.1201 H       1  ZINC000523863446    0.1100
     39 H39       -10.3958    0.1493   51.9657 H       1  ZINC000523863446    0.1100
     40 H40        -9.9466    0.9105   55.4610 H       1  ZINC000523863446    0.4000
     41 H41       -12.4158   -0.0175   57.0611 H       1  ZINC000523863446    0.0800
     42 H42       -12.5621   -0.9675   55.5630 H       1  ZINC000523863446    0.0700
     43 H43       -11.6136   -2.7449   57.5879 H       1  ZINC000523863446    0.0700
     44 H44       -12.4469   -1.0964   59.2422 H       1  ZINC000523863446    0.0600
     45 H45       -14.0384   -1.1008   58.4450 H       1  ZINC000523863446    0.0600
     46 H46       -12.6756   -3.5203   59.7124 H       1  ZINC000523863446    0.0600
     47 H47       -14.0273   -2.6023   60.4184 H       1  ZINC000523863446    0.0600
     48 H48       -14.8419   -4.6416   59.2668 H       1  ZINC000523863446    0.0600
     49 H49       -15.4370   -3.1712   58.4594 H       1  ZINC000523863446    0.0600
     50 H50       -13.0122   -4.8152   57.6023 H       1  ZINC000523863446    0.0600
     51 H51       -14.6037   -4.8196   56.8051 H       1  ZINC000523863446    0.0600
     52 H52       -14.3749   -2.3958   56.3350 H       1  ZINC000523863446    0.0600
     53 H53       -13.0233   -3.3138   55.6289 H       1  ZINC000523863446    0.0600
     54 H54       -10.3560    1.6529   57.2442 H       1  ZINC000523863446    0.1200
     55 H55        -9.3189    2.4627   59.3255 H       1  ZINC000523863446    0.1200
     56 H56        -8.3173    0.8619   60.9058 H       1  ZINC000523863446    0.1200
     57 H57        -8.3534   -1.5488   60.4051 H       1  ZINC000523863446    0.1200
     58 H58        -9.3946   -2.3589   58.3259 H       1  ZINC000523863446    0.1200
     59 H59        -4.0065    0.6590   51.0054 H       1  ZINC000523863446    0.1700
     60 H60        -4.2097    1.5453   48.5426 H       1  ZINC000523863446    0.1500
     61 H61        -6.4679    2.9531   48.3600 H       1  ZINC000523863446    0.1800
@<TRIPOS>BOND
     1     1     2    1
     2     1    32    1
     3     1    33    1
     4     1    34    1
     5     2     3    1
     6     2     4    1
     7     2    27    1
     8     4     5    2
     9     4     6   am
    10     6     7    1
    11     6     8    1
    12     7    35    1
    13     7    36    1
    14     7    37    1
    15     8     9    1
    16     8    38    1
    17     8    39    1
    18     9    10    2
    19     9    11   am
    20    11    12    1
    21    11    40    1
    22    12    13    1
    23    12    14    1
    24    12    21    1
    25    14    15    1
    26    14    41    1
    27    14    42    1
    28    15    20    1
    29    15    16    1
    30    15    43    1
    31    16    17    1
    32    16    44    1
    33    16    45    1
    34    17    18    1
    35    17    46    1
    36    17    47    1
    37    18    19    1
    38    18    48    1
    39    18    49    1
    40    19    20    1
    41    19    50    1
    42    19    51    1
    43    20    52    1
    44    20    53    1
    45    21    26   ar
    46    21    22   ar
    47    22    23   ar
    48    22    54    1
    49    23    24   ar
    50    23    55    1
    51    24    25   ar
    52    24    56    1
    53    25    26   ar
    54    25    57    1
    55    26    58    1
    56    27    31    1
    57    27    28    1
    58    28    29    2
    59    28    59    1
    60    29    30    1
    61    29    60    1
    62    30    31    2
    63    30    61    1
@<TRIPOS>SUBSTRUCTURE
     1 ZINC000523863446        1 TEMP              0 ****  ****    0 ROOT


##########                                Name:    ZINC000957079511
##########                DOCK_Rotatable_Bonds:                   8
##########                         Heavy_Atoms:                  25
##########                    Molecular_Weight:             362.453
##########                DOCK_Rotatable_Bonds:                   8
##########                       Formal_Charge:        -4.32134e-07
##########                     HBond_Acceptors:                   8
##########                        HBond_Donors:                   2
##########                         Heavy_Atoms:                  25
##########                          Grid_Score:          -32.429668
##########                     Grid_vdw_energy:          -32.547058
##########                      Grid_es_energy:            0.117391
##########           Internal_energy_repulsive:           15.868237

@<TRIPOS>MOLECULE
ZINC000957079511
 47 49 1 0 0
SMALL
USER_CHARGES


@<TRIPOS>ATOM
      1 C1         -9.1119    1.6363   54.5341 C.3     1  ZINC000957079511   -0.0700
      2 C2         -9.7245    0.7051   53.5199 C.2     1  ZINC000957079511    0.0300
      3 C3         -9.0780   -0.2620   52.8416 C.2     1  ZINC000957079511   -0.0200
      4 C4         -7.6169   -0.6142   52.9527 C.3     1  ZINC000957079511   -0.0600
      5 C5         -6.8908   -0.1401   51.7201 C.2     1  ZINC000957079511    0.5100
      6 O6         -6.7434   -0.8888   50.7775 O.2     1  ZINC000957079511   -0.5200
      7 N7         -6.4052    1.1160   51.6654 N.am    1  ZINC000957079511   -0.7200
      8 C8         -5.6978    1.5763   50.4679 C.3     1  ZINC000957079511    0.1400
      9 H9         -6.1039    1.1066   49.5721 H       1  ZINC000957079511    0.1100
     10 C10        -4.1752    1.3178   50.5888 C.3     1  ZINC000957079511    0.0800
     11 N11        -3.5516    2.3136   49.6984 N.am    1  ZINC000957079511   -0.6200
     12 C12        -2.3375    2.2023   49.1238 C.2     1  ZINC000957079511    0.5400
     13 O13        -1.9238    3.0865   48.4041 O.2     1  ZINC000957079511   -0.5100
     14 C14        -1.4940    0.9791   49.3756 C.3     1  ZINC000957079511    0.0500
     15 O15        -1.6610    0.0553   48.2981 O.3     1  ZINC000957079511   -0.2800
     16 C16        -1.0204    0.3439   47.1311 C.2     1  ZINC000957079511    0.1200
     17 C17        -0.1359    1.3396   47.0228 C.2     1  ZINC000957079511   -0.3300
     18 S18         0.4784    1.4070   45.3762 S.3     1  ZINC000957079511    0.1300
     19 C19        -0.5274    0.0411   44.9116 C.2     1  ZINC000957079511   -0.1800
     20 C20        -1.2316   -0.3767   45.9653 C.2     1  ZINC000957079511   -0.1400
     21 C21        -4.4737    3.4477   49.5402 C.3     1  ZINC000957079511    0.1100
     22 C22        -5.7442    3.1230   50.3547 C.3     1  ZINC000957079511   -0.1100
     23 H23        -5.6974    3.5829   51.3419 H       1  ZINC000957079511    0.0900
     24 C24        -6.9983    3.5789   49.6061 C.3     1  ZINC000957079511   -0.1400
     25 N25       -10.0031   -0.8643   52.0322 N.pl3   1  ZINC000957079511   -0.5600
     26 C26       -11.1836   -0.2436   52.2442 C.2     1  ZINC000957079511    0.2000
     27 N27       -11.0104    0.6906   53.1388 N.2     1  ZINC000957079511   -0.4900
     28 H28        -9.1783    1.1882   55.5255 H       1  ZINC000957079511    0.0700
     29 H29        -8.0654    1.8094   54.2831 H       1  ZINC000957079511    0.0600
     30 H30        -9.6488    2.5848   54.5275 H       1  ZINC000957079511    0.0700
     31 H31        -7.1926   -0.1309   53.8328 H       1  ZINC000957079511    0.1000
     32 H32        -7.5097   -1.6950   53.0445 H       1  ZINC000957079511    0.1200
     33 H33        -6.5242    1.7153   52.4188 H       1  ZINC000957079511    0.4000
     34 H34        -3.8453    1.4688   51.6167 H       1  ZINC000957079511    0.0800
     35 H35        -3.9342    0.3081   50.2566 H       1  ZINC000957079511    0.0800
     36 H36        -0.4457    1.2690   49.4463 H       1  ZINC000957079511    0.0900
     37 H37        -1.8049    0.5091   50.3086 H       1  ZINC000957079511    0.0900
     38 H38         0.1568    2.0022   47.8239 H       1  ZINC000957079511    0.1700
     39 H39        -0.5660   -0.3958   43.9248 H       1  ZINC000957079511    0.1800
     40 H40        -1.9193   -1.2077   45.9122 H       1  ZINC000957079511    0.1500
     41 H41        -4.0108    4.3578   49.9218 H       1  ZINC000957079511    0.0800
     42 H42        -4.7304    3.5728   48.4883 H       1  ZINC000957079511    0.0800
     43 H43        -7.0414    3.0853   48.6352 H       1  ZINC000957079511    0.0600
     44 H44        -7.8830    3.3170   50.1865 H       1  ZINC000957079511    0.0600
     45 H45        -6.9638    4.6589   49.4636 H       1  ZINC000957079511    0.0700
     46 H46        -9.8411   -1.5994   51.4205 H       1  ZINC000957079511    0.4200
     47 H47       -12.1173   -0.4833   51.7570 H       1  ZINC000957079511    0.2100
@<TRIPOS>BOND
     1     1     2    1
     2     1    28    1
     3     1    29    1
     4     1    30    1
     5     2    27    1
     6     2     3    2
     7     3     4    1
     8     3    25    1
     9     4     5    1
    10     4    31    1
    11     4    32    1
    12     5     6    2
    13     5     7   am
    14     7     8    1
    15     7    33    1
    16     8     9    1
    17     8    22    1
    18     8    10    1
    19    10    11    1
    20    10    34    1
    21    10    35    1
    22    11    12   am
    23    11    21    1
    24    12    13    2
    25    12    14    1
    26    14    15    1
    27    14    36    1
    28    14    37    1
    29    15    16    1
    30    16    20    1
    31    16    17    2
    32    17    18    1
    33    17    38    1
    34    18    19    1
    35    19    20    2
    36    19    39    1
    37    20    40    1
    38    21    22    1
    39    21    41    1
    40    21    42    1
    41    22    23    1
    42    22    24    1
    43    24    43    1
    44    24    44    1
    45    24    45    1
    46    25    26    1
    47    25    46    1
    48    26    27    2
    49    26    47    1
@<TRIPOS>SUBSTRUCTURE
     1 ZINC000957079511        1 TEMP              0 ****  ****    0 ROOT


##########                                Name:    ZINC000481838178
##########                DOCK_Rotatable_Bonds:                   6
##########                         Heavy_Atoms:                  29
##########                    Molecular_Weight:             408.524
##########                DOCK_Rotatable_Bonds:                   6
##########                       Formal_Charge:         -0.00999962
##########                     HBond_Acceptors:                   7
##########                        HBond_Donors:                   0
##########                         Heavy_Atoms:                  29
##########                          Grid_Score:          -32.424503
##########                     Grid_vdw_energy:          -32.256382
##########                      Grid_es_energy:           -0.168123
##########           Internal_energy_repulsive:            6.391618

@<TRIPOS>MOLECULE
ZINC000481838178
 53 57 1 0 0
SMALL
USER_CHARGES


@<TRIPOS>ATOM
      1 O1         -8.3699   -1.2851   51.6466 O.2     1  ZINC000481838178   -0.5200
      2 C2         -8.5670   -0.1214   51.9256 C.2     1  ZINC000481838178    0.5500
      3 C3         -9.8676    0.2900   52.5662 C.3     1  ZINC000481838178   -0.1500
      4 S4        -10.5595   -1.1106   53.4802 S.3     1  ZINC000481838178    0.1000
      5 C5         -9.8616   -0.8130   55.0705 C.2     1  ZINC000481838178    0.1600
      6 N6         -8.8106   -0.0695   55.3335 N.2     1  ZINC000481838178   -0.2800
      7 N7         -8.5727   -0.0679   56.5962 N.2     1  ZINC000481838178   -0.2500
      8 C8         -9.4587   -0.8120   57.2220 C.2     1  ZINC000481838178    0.2700
      9 C9         -9.5253   -1.0619   58.6699 C.2     1  ZINC000481838178    0.0300
     10 C10        -8.4782   -1.0071   59.5406 C.2     1  ZINC000481838178   -0.1300
     11 C11        -8.9941   -1.3134   60.8146 C.2     1  ZINC000481838178   -0.2100
     12 C12       -10.3147   -1.5376   60.6634 C.2     1  ZINC000481838178   -0.0100
     13 O13       -10.6335   -1.3793   59.3681 O.3     1  ZINC000481838178   -0.1700
     14 N14       -10.3170   -1.3086   56.2629 N.pl3   1  ZINC000481838178   -0.4100
     15 C15       -11.4187   -2.1510   56.4656 C.ar    1  ZINC000481838178    0.1000
     16 C16       -11.2347   -3.4222   56.9923 C.ar    1  ZINC000481838178   -0.0800
     17 C17       -12.3224   -4.2501   57.1907 C.ar    1  ZINC000481838178   -0.1100
     18 C18       -13.5936   -3.8138   56.8655 C.ar    1  ZINC000481838178   -0.1000
     19 C19       -13.7800   -2.5481   56.3407 C.ar    1  ZINC000481838178   -0.1100
     20 C20       -12.6969   -1.7136   56.1453 C.ar    1  ZINC000481838178   -0.0900
     21 N21        -7.6207    0.8031   51.6679 N.am    1  ZINC000481838178   -0.6200
     22 C22        -6.2987    0.5449   51.0370 C.3     1  ZINC000481838178    0.1000
     23 C23        -5.9433    1.8962   50.4057 C.3     1  ZINC000481838178   -0.1100
     24 H24        -6.5333    2.0748   49.5067 H       1  ZINC000481838178    0.0900
     25 C25        -4.4701    2.1481   50.1458 C.3     1  ZINC000481838178   -0.1100
     26 C26        -4.3427    3.5906   49.6284 C.3     1  ZINC000481838178   -0.1200
     27 C27        -4.9157    4.5973   50.6207 C.3     1  ZINC000481838178   -0.1200
     28 C28        -6.3655    4.2537   51.0027 C.3     1  ZINC000481838178   -0.1000
     29 C29        -6.3737    2.8494   51.5609 C.3     1  ZINC000481838178   -0.1100
     30 H30        -5.6549    2.7681   52.3763 H       1  ZINC000481838178    0.0900
     31 C31        -7.7211    2.2549   51.9592 C.3     1  ZINC000481838178    0.1200
     32 H32        -9.6889    1.1186   53.2516 H       1  ZINC000481838178    0.1300
     33 H33       -10.5703    0.6025   51.7938 H       1  ZINC000481838178    0.1300
     34 H34        -7.4514   -0.7744   59.2999 H       1  ZINC000481838178    0.1600
     35 H35        -8.4369   -1.3600   61.7384 H       1  ZINC000481838178    0.1600
     36 H36       -11.0034   -1.7971   61.4539 H       1  ZINC000481838178    0.2100
     37 H37       -10.2421   -3.7637   57.2462 H       1  ZINC000481838178    0.1300
     38 H38       -12.1798   -5.2393   57.6002 H       1  ZINC000481838178    0.1400
     39 H39       -14.4425   -4.4630   57.0213 H       1  ZINC000481838178    0.1300
     40 H40       -14.7741   -2.2103   56.0872 H       1  ZINC000481838178    0.1400
     41 H41       -12.8432   -0.7252   55.7354 H       1  ZINC000481838178    0.1300
     42 H42        -5.5610    0.2656   51.7893 H       1  ZINC000481838178    0.0800
     43 H43        -6.3815   -0.2273   50.2721 H       1  ZINC000481838178    0.0800
     44 H44        -3.9047    2.0338   51.0707 H       1  ZINC000481838178    0.0700
     45 H45        -4.1006    1.4499   49.3947 H       1  ZINC000481838178    0.0700
     46 H46        -3.2896    3.8165   49.4605 H       1  ZINC000481838178    0.0600
     47 H47        -4.8788    3.6780   48.6834 H       1  ZINC000481838178    0.0600
     48 H48        -4.3012    4.5987   51.5210 H       1  ZINC000481838178    0.0600
     49 H49        -4.8915    5.5911   50.1734 H       1  ZINC000481838178    0.0700
     50 H50        -6.7276    4.9545   51.7550 H       1  ZINC000481838178    0.0700
     51 H51        -7.0021    4.2941   50.1189 H       1  ZINC000481838178    0.0700
     52 H52        -8.5212    2.7129   51.3778 H       1  ZINC000481838178    0.0700
     53 H53        -7.8974    2.4022   53.0247 H       1  ZINC000481838178    0.0700
@<TRIPOS>BOND
     1     1     2    2
     2     2     3    1
     3     2    21   am
     4     3     4    1
     5     3    32    1
     6     3    33    1
     7     4     5    1
     8     5    14    1
     9     5     6    2
    10     6     7    1
    11     7     8    2
    12     8     9    1
    13     8    14    1
    14     9    13    1
    15     9    10    2
    16    10    11    1
    17    10    34    1
    18    11    12    2
    19    11    35    1
    20    12    13    1
    21    12    36    1
    22    14    15    1
    23    15    20   ar
    24    15    16   ar
    25    16    17   ar
    26    16    37    1
    27    17    18   ar
    28    17    38    1
    29    18    19   ar
    30    18    39    1
    31    19    20   ar
    32    19    40    1
    33    20    41    1
    34    21    31    1
    35    21    22    1
    36    22    23    1
    37    22    42    1
    38    22    43    1
    39    23    24    1
    40    23    29    1
    41    23    25    1
    42    25    26    1
    43    25    44    1
    44    25    45    1
    45    26    27    1
    46    26    46    1
    47    26    47    1
    48    27    28    1
    49    27    48    1
    50    27    49    1
    51    28    29    1
    52    28    50    1
    53    28    51    1
    54    29    30    1
    55    29    31    1
    56    31    52    1
    57    31    53    1
@<TRIPOS>SUBSTRUCTURE
     1 ZINC000481838178        1 TEMP              0 ****  ****    0 ROOT


##########                                Name:    ZINC001408567397
##########                DOCK_Rotatable_Bonds:                   9
##########                         Heavy_Atoms:                  24
##########                    Molecular_Weight:             336.434
##########                DOCK_Rotatable_Bonds:                   9
##########                       Formal_Charge:          -0.0199996
##########                     HBond_Acceptors:                   7
##########                        HBond_Donors:                   2
##########                         Heavy_Atoms:                  24
##########                          Grid_Score:          -32.414833
##########                     Grid_vdw_energy:          -31.735044
##########                      Grid_es_energy:           -0.679789
##########           Internal_energy_repulsive:           18.771021

@<TRIPOS>MOLECULE
ZINC001408567397
 52 53 1 0 0
SMALL
USER_CHARGES


@<TRIPOS>ATOM
      1 C1        -13.2774   -1.8558   60.6676 C.3     1  ZINC001408567397   -0.0800
      2 C2        -13.8761   -2.9243   59.7895 C.2     1  ZINC001408567397    0.0900
      3 N3        -15.1261   -3.3104   59.7950 N.2     1  ZINC001408567397   -0.2900
      4 N4        -15.2766   -4.3196   58.8353 N.pl3   1  ZINC001408567397   -0.4700
      5 C5        -14.0753   -4.5244   58.2558 C.2     1  ZINC001408567397    0.1100
      6 C6        -13.7723   -5.5210   57.1669 C.3     1  ZINC001408567397   -0.1000
      7 C7        -13.1926   -3.6703   58.8237 C.2     1  ZINC001408567397   -0.2200
      8 C8        -11.7297   -3.5503   58.4822 C.3     1  ZINC001408567397   -0.0600
      9 C9        -11.5388   -2.4503   57.4700 C.2     1  ZINC001408567397    0.5100
     10 O10       -12.4158   -2.2041   56.6692 O.2     1  ZINC001408567397   -0.5300
     11 N11       -10.3935   -1.7400   57.4545 N.am    1  ZINC001408567397   -0.7300
     12 C12       -10.2086   -0.6695   56.4716 C.3     1  ZINC001408567397    0.1100
     13 C13        -9.4586   -1.2174   55.2559 C.3     1  ZINC001408567397    0.1000
     14 N14        -9.4588   -0.2136   54.1888 N.am    1  ZINC001408567397   -0.6200
     15 C15       -10.4218   -0.3136   53.0893 C.3     1  ZINC001408567397    0.0700
     16 C16        -8.5732    0.8019   54.2187 C.2     1  ZINC001408567397    0.5100
     17 O17        -7.7751    0.8839   55.1281 O.2     1  ZINC001408567397   -0.5300
     18 C18        -8.5746    1.8354   53.1220 C.3     1  ZINC001408567397   -0.1300
     19 C19        -7.6561    1.3767   51.9876 C.3     1  ZINC001408567397   -0.1100
     20 H20        -8.0362    0.4468   51.5646 H       1  ZINC001408567397    0.0900
     21 C21        -7.6101    2.4531   50.8989 C.3     1  ZINC001408567397   -0.1200
     22 C22        -6.6283    2.0177   49.8069 C.3     1  ZINC001408567397   -0.1600
     23 C23        -5.2550    1.7686   50.4359 C.3     1  ZINC001408567397    0.0600
     24 O24        -5.3743    0.7799   51.4607 O.3     1  ZINC001408567397   -0.3800
     25 C25        -6.2435    1.1508   52.5327 C.3     1  ZINC001408567397    0.0600
     26 H26       -13.3598   -0.8890   60.1710 H       1  ZINC001408567397    0.0800
     27 H27       -13.8124   -1.8235   61.6167 H       1  ZINC001408567397    0.0700
     28 H28       -12.2268   -2.0820   60.8502 H       1  ZINC001408567397    0.0800
     29 H29       -16.0992   -4.7887   58.6246 H       1  ZINC001408567397    0.4400
     30 H30       -13.9217   -5.0529   56.1940 H       1  ZINC001408567397    0.0800
     31 H31       -12.7378   -5.8528   57.2555 H       1  ZINC001408567397    0.0900
     32 H32       -14.4383   -6.3785   57.2636 H       1  ZINC001408567397    0.0700
     33 H33       -11.1641   -3.3163   59.3840 H       1  ZINC001408567397    0.1000
     34 H34       -11.3754   -4.4930   58.0654 H       1  ZINC001408567397    0.1000
     35 H35        -9.6915   -1.9377   58.0941 H       1  ZINC001408567397    0.4000
     36 H36       -11.1818   -0.2918   56.1583 H       1  ZINC001408567397    0.0700
     37 H37        -9.6320    0.1397   56.9199 H       1  ZINC001408567397    0.0700
     38 H38        -8.4312   -1.4488   55.5367 H       1  ZINC001408567397    0.0800
     39 H39        -9.9515   -2.1231   54.9027 H       1  ZINC001408567397    0.0900
     40 H40       -11.3298    0.2295   53.3509 H       1  ZINC001408567397    0.0600
     41 H41        -9.9884    0.1168   52.1865 H       1  ZINC001408567397    0.0800
     42 H42       -10.6635   -1.3616   52.9122 H       1  ZINC001408567397    0.0800
     43 H43        -9.5882    1.9596   52.7409 H       1  ZINC001408567397    0.1000
     44 H44        -8.2163    2.7857   53.5178 H       1  ZINC001408567397    0.1000
     45 H45        -8.6033    2.5781   50.4676 H       1  ZINC001408567397    0.0700
     46 H46        -7.2782    3.3964   51.3326 H       1  ZINC001408567397    0.0600
     47 H47        -6.9867    1.1005   49.3395 H       1  ZINC001408567397    0.0700
     48 H48        -6.5476    2.8031   49.0552 H       1  ZINC001408567397    0.0700
     49 H49        -4.5630    1.4173   49.6706 H       1  ZINC001408567397    0.0900
     50 H50        -4.8794    2.6963   50.8677 H       1  ZINC001408567397    0.0500
     51 H51        -5.8815    2.0704   52.9927 H       1  ZINC001408567397    0.0400
     52 H52        -6.2625    0.3549   53.2773 H       1  ZINC001408567397    0.1100
@<TRIPOS>BOND
     1     1     2    1
     2     1    26    1
     3     1    27    1
     4     1    28    1
     5     2     7    1
     6     2     3    2
     7     3     4    1
     8     4     5    1
     9     4    29    1
    10     5     6    1
    11     5     7    2
    12     6    30    1
    13     6    31    1
    14     6    32    1
    15     7     8    1
    16     8     9    1
    17     8    33    1
    18     8    34    1
    19     9    10    2
    20     9    11   am
    21    11    12    1
    22    11    35    1
    23    12    13    1
    24    12    36    1
    25    12    37    1
    26    13    14    1
    27    13    38    1
    28    13    39    1
    29    14    15    1
    30    14    16   am
    31    15    40    1
    32    15    41    1
    33    15    42    1
    34    16    17    2
    35    16    18    1
    36    18    19    1
    37    18    43    1
    38    18    44    1
    39    19    20    1
    40    19    25    1
    41    19    21    1
    42    21    22    1
    43    21    45    1
    44    21    46    1
    45    22    23    1
    46    22    47    1
    47    22    48    1
    48    23    24    1
    49    23    49    1
    50    23    50    1
    51    24    25    1
    52    25    51    1
    53    25    52    1
@<TRIPOS>SUBSTRUCTURE
     1 ZINC001408567397        1 TEMP              0 ****  ****    0 ROOT


##########                                Name:    ZINC000479580180
##########                DOCK_Rotatable_Bonds:                   5
##########                         Heavy_Atoms:                  30
##########                    Molecular_Weight:             404.444
##########                DOCK_Rotatable_Bonds:                   5
##########                       Formal_Charge:           0.0299995
##########                     HBond_Acceptors:                   7
##########                        HBond_Donors:                   1
##########                         Heavy_Atoms:                  30
##########                          Grid_Score:          -32.400112
##########                     Grid_vdw_energy:          -31.420589
##########                      Grid_es_energy:           -0.979523
##########           Internal_energy_repulsive:           15.832954

@<TRIPOS>MOLECULE
ZINC000479580180
 51 55 1 0 0
SMALL
USER_CHARGES


@<TRIPOS>ATOM
      1 O1         -1.6921    2.4561   51.6352 O.2     1  ZINC000479580180   -0.5200
      2 C2         -2.2478    2.2231   50.5827 C.2     1  ZINC000479580180    0.5200
      3 C3         -1.7621    1.0966   49.7074 C.3     1  ZINC000479580180   -0.0700
      4 C4         -1.2356    1.6582   48.4118 C.2     1  ZINC000479580180   -0.1600
      5 C5         -0.7723    2.8975   48.2017 C.2     1  ZINC000479580180    0.0300
      6 O6         -0.3883    3.0378   46.9205 O.3     1  ZINC000479580180   -0.1900
      7 C7         -0.5830    1.8950   46.2325 C.ar    1  ZINC000479580180    0.0800
      8 C8         -0.3575    1.5235   44.9133 C.ar    1  ZINC000479580180   -0.1400
      9 C9         -0.6690    0.2439   44.4979 C.ar    1  ZINC000479580180    0.1300
     10 F10        -0.4483   -0.1152   43.2143 F       1  ZINC000479580180   -0.1300
     11 C11        -1.2070   -0.6776   45.3871 C.ar    1  ZINC000479580180   -0.1600
     12 C12        -1.4363   -0.3297   46.6897 C.ar    1  ZINC000479580180   -0.0400
     13 C13        -1.1215    0.9553   47.1279 C.ar    1  ZINC000479580180   -0.1200
     14 N14        -3.3033    2.9680   50.1985 N.am    1  ZINC000479580180   -0.6200
     15 C15        -3.9942    2.6901   48.9320 C.3     1  ZINC000479580180    0.1100
     16 C16        -5.4892    2.5120   49.2148 C.3     1  ZINC000479580180   -0.1300
     17 C17        -6.0134    3.7416   49.9602 C.3     1  ZINC000479580180   -0.0100
     18 C18        -7.4913    3.5850   50.2100 C.2     1  ZINC000479580180    0.3000
     19 N19        -8.4480    3.9620   49.4037 N.2     1  ZINC000479580180   -0.5300
     20 C20        -9.6383    3.6684   49.9440 C.2     1  ZINC000479580180    0.2700
     21 C21       -10.9599    3.9432   49.3269 C.ar    1  ZINC000479580180   -0.0200
     22 C22       -11.0344    4.5597   48.0797 C.ar    1  ZINC000479580180   -0.0800
     23 C23       -12.2660    4.8125   47.5103 C.ar    1  ZINC000479580180   -0.1300
     24 C24       -13.4249    4.4553   48.1757 C.ar    1  ZINC000479580180   -0.1000
     25 C25       -13.3565    3.8430   49.4141 C.ar    1  ZINC000479580180   -0.1200
     26 C26       -12.1302    3.5803   49.9902 C.ar    1  ZINC000479580180   -0.0800
     27 N27        -9.4417    3.0960   51.1113 N.2     1  ZINC000479580180   -0.3000
     28 N28        -8.0516    3.0280   51.2987 N.pl3   1  ZINC000479580180   -0.4800
     29 C29        -5.2820    3.8797   51.2974 C.3     1  ZINC000479580180   -0.1400
     30 C30        -3.7884    4.0695   51.0410 C.3     1  ZINC000479580180    0.1200
     31 H31        -0.9658    0.5561   50.2193 H       1  ZINC000479580180    0.1100
     32 H32        -2.5877    0.4160   49.4995 H       1  ZINC000479580180    0.1100
     33 H33        -0.7154    3.6719   48.9524 H       1  ZINC000479580180    0.2100
     34 H34         0.0601    2.2333   44.2146 H       1  ZINC000479580180    0.1500
     35 H35        -1.4457   -1.6748   45.0479 H       1  ZINC000479580180    0.1400
     36 H36        -1.8553   -1.0494   47.3773 H       1  ZINC000479580180    0.1300
     37 H37        -3.8489    3.5245   48.2458 H       1  ZINC000479580180    0.0800
     38 H38        -3.5946    1.7773   48.4903 H       1  ZINC000479580180    0.0900
     39 H39        -6.0269    2.4009   48.2731 H       1  ZINC000479580180    0.0900
     40 H40        -5.6403    1.6233   49.8275 H       1  ZINC000479580180    0.0700
     41 H41        -5.8395    4.6331   49.3575 H       1  ZINC000479580180    0.1200
     42 H42       -10.1303    4.8396   47.5597 H       1  ZINC000479580180    0.1400
     43 H43       -12.3251    5.2903   46.5436 H       1  ZINC000479580180    0.1300
     44 H44       -14.3866    4.6556   47.7268 H       1  ZINC000479580180    0.1300
     45 H45       -14.2645    3.5666   49.9295 H       1  ZINC000479580180    0.1300
     46 H46       -12.0779    3.1020   50.9571 H       1  ZINC000479580180    0.1300
     47 H47        -7.5868    2.6577   52.0654 H       1  ZINC000479580180    0.4400
     48 H48        -5.6722    4.7420   51.8379 H       1  ZINC000479580180    0.0900
     49 H49        -5.4350    2.9782   51.8905 H       1  ZINC000479580180    0.0700
     50 H50        -3.2520    4.0691   51.9900 H       1  ZINC000479580180    0.1000
     51 H51        -3.6234    5.0159   50.5260 H       1  ZINC000479580180    0.0800
@<TRIPOS>BOND
     1     1     2    2
     2     2     3    1
     3     2    14   am
     4     3     4    1
     5     3    31    1
     6     3    32    1
     7     4    13    1
     8     4     5    2
     9     5     6    1
    10     5    33    1
    11     6     7    1
    12     7    13   ar
    13     7     8   ar
    14     8     9   ar
    15     8    34    1
    16     9    10    1
    17     9    11   ar
    18    11    12   ar
    19    11    35    1
    20    12    13   ar
    21    12    36    1
    22    14    30    1
    23    14    15    1
    24    15    16    1
    25    15    37    1
    26    15    38    1
    27    16    17    1
    28    16    39    1
    29    16    40    1
    30    17    18    1
    31    17    29    1
    32    17    41    1
    33    18    28    1
    34    18    19    2
    35    19    20    1
    36    20    21    1
    37    20    27    2
    38    21    26   ar
    39    21    22   ar
    40    22    23   ar
    41    22    42    1
    42    23    24   ar
    43    23    43    1
    44    24    25   ar
    45    24    44    1
    46    25    26   ar
    47    25    45    1
    48    26    46    1
    49    27    28    1
    50    28    47    1
    51    29    30    1
    52    29    48    1
    53    29    49    1
    54    30    50    1
    55    30    51    1
@<TRIPOS>SUBSTRUCTURE
     1 ZINC000479580180        1 TEMP              0 ****  ****    0 ROOT


##########                                Name:    ZINC001284642199
##########                DOCK_Rotatable_Bonds:                   8
##########                         Heavy_Atoms:                  25
##########                    Molecular_Weight:             346.516
##########                DOCK_Rotatable_Bonds:                   8
##########                       Formal_Charge:         -3.8743e-07
##########                     HBond_Acceptors:                   5
##########                        HBond_Donors:                   2
##########                         Heavy_Atoms:                  25
##########                          Grid_Score:          -32.392792
##########                     Grid_vdw_energy:          -32.174503
##########                      Grid_es_energy:           -0.218289
##########           Internal_energy_repulsive:           19.274807

@<TRIPOS>MOLECULE
ZINC001284642199
 59 60 1 0 0
SMALL
USER_CHARGES


@<TRIPOS>ATOM
      1 C1         -0.5362    1.3200   45.2193 C.3     1  ZINC001284642199   -0.1100
      2 C2         -1.2472    1.4142   46.5447 C.ar    1  ZINC001284642199   -0.1900
      3 C3         -0.6293    0.9966   47.7129 C.ar    1  ZINC001284642199    0.1500
      4 N4         -1.2845    1.0949   48.8584 N.ar    1  ZINC001284642199   -0.4900
      5 C5         -2.5085    1.5823   48.8964 C.ar    1  ZINC001284642199    0.3100
      6 C6         -3.2194    1.6765   50.2219 C.3     1  ZINC001284642199    0.1300
      7 N7         -4.6608    1.4782   50.0195 N.3     1  ZINC001284642199   -0.6800
      8 C8         -5.4086    1.7548   51.2533 C.3     1  ZINC001284642199    0.0500
      9 C9         -6.8947    1.9110   50.9249 C.3     1  ZINC001284642199    0.1600
     10 H10        -7.1190    1.3848   49.9969 H       1  ZINC001284642199    0.1000
     11 N11        -7.6972    1.3464   52.0126 N.am    1  ZINC001284642199   -0.7200
     12 C12        -7.9075    0.0166   52.0749 C.2     1  ZINC001284642199    0.5200
     13 O13        -7.4310   -0.7128   51.2312 O.2     1  ZINC001284642199   -0.5300
     14 C14        -8.7345   -0.5640   53.1930 C.3     1  ZINC001284642199   -0.1100
     15 H15        -8.4647   -1.6099   53.3391 H       1  ZINC001284642199    0.0900
     16 C16        -8.4688    0.2162   54.4820 C.3     1  ZINC001284642199   -0.1000
     17 C17        -9.3085   -0.3732   55.6171 C.3     1  ZINC001284642199   -0.1100
     18 C18       -10.7925   -0.2747   55.2580 C.3     1  ZINC001284642199   -0.0900
     19 H19       -11.0623    0.7713   55.1119 H       1  ZINC001284642199    0.0700
     20 C20       -11.6321   -0.8642   56.3931 C.3     1  ZINC001284642199   -0.1500
     21 C21       -11.0581   -1.0548   53.9690 C.3     1  ZINC001284642199   -0.1100
     22 C22       -10.2186   -0.4654   52.8339 C.3     1  ZINC001284642199   -0.1100
     23 C23        -7.2279    3.3954   50.7627 C.3     1  ZINC001284642199   -0.0800
     24 C24        -6.2136    4.0458   49.8198 C.3     1  ZINC001284642199   -0.1400
     25 C25        -8.6343    3.5416   50.1782 C.3     1  ZINC001284642199   -0.1400
     26 C26        -7.1690    4.0834   52.1281 C.3     1  ZINC001284642199   -0.1300
     27 N27        -3.1291    1.9845   47.8056 N.ar    1  ZINC001284642199   -0.5100
     28 C28        -2.5347    1.9211   46.6249 C.ar    1  ZINC001284642199    0.1500
     29 H29        -0.7450    0.3523   44.7630 H       1  ZINC001284642199    0.0800
     30 H30        -0.8870    2.1151   44.5615 H       1  ZINC001284642199    0.0700
     31 H31         0.5375    1.4242   45.3747 H       1  ZINC001284642199    0.0700
     32 H32         0.3733    0.5959   47.6885 H       1  ZINC001284642199    0.1700
     33 H33        -3.0457    2.6601   50.6582 H       1  ZINC001284642199    0.1000
     34 H34        -2.8378    0.9081   50.8942 H       1  ZINC001284642199    0.0600
     35 H35        -4.8538    0.5475   49.6807 H       1  ZINC001284642199    0.3400
     36 H36        -5.0374    2.6750   51.7046 H       1  ZINC001284642199    0.0900
     37 H37        -5.2758    0.9285   51.9516 H       1  ZINC001284642199    0.0400
     38 H38        -8.0773    1.9297   52.6882 H       1  ZINC001284642199    0.3900
     39 H39        -8.7386    1.2621   54.3359 H       1  ZINC001284642199    0.0700
     40 H40        -7.4116    0.1461   54.7379 H       1  ZINC001284642199    0.0700
     41 H41        -9.1192    0.1826   56.5355 H       1  ZINC001284642199    0.0700
     42 H42        -9.0387   -1.4191   55.7634 H       1  ZINC001284642199    0.0600
     43 H43       -11.4429   -0.3083   57.3115 H       1  ZINC001284642199    0.0500
     44 H44       -12.6894   -0.7940   56.1373 H       1  ZINC001284642199    0.0500
     45 H45       -11.3624   -1.9100   56.5393 H       1  ZINC001284642199    0.0500
     46 H46       -10.7883   -2.1008   54.1151 H       1  ZINC001284642199    0.0600
     47 H47       -12.1153   -0.9847   53.7131 H       1  ZINC001284642199    0.0700
     48 H48       -10.4883    0.5805   52.6877 H       1  ZINC001284642199    0.0700
     49 H49       -10.4077   -1.0212   51.9155 H       1  ZINC001284642199    0.0600
     50 H50        -6.2555    3.5556   48.8471 H       1  ZINC001284642199    0.0600
     51 H51        -6.4509    5.1033   49.7043 H       1  ZINC001284642199    0.0600
     52 H52        -5.2116    3.9416   50.2362 H       1  ZINC001284642199    0.0500
     53 H53        -9.3569    3.0784   50.8500 H       1  ZINC001284642199    0.0600
     54 H54        -8.8716    4.5992   50.0627 H       1  ZINC001284642199    0.0600
     55 H55        -8.6762    3.0515   49.2055 H       1  ZINC001284642199    0.0600
     56 H56        -6.1672    3.9793   52.5444 H       1  ZINC001284642199    0.0500
     57 H57        -7.4064    5.1410   52.0125 H       1  ZINC001284642199    0.0500
     58 H58        -7.8917    3.6202   52.7998 H       1  ZINC001284642199    0.0600
     59 H59        -3.0475    2.2559   45.7353 H       1  ZINC001284642199    0.1700
@<TRIPOS>BOND
     1     1     2    1
     2     1    29    1
     3     1    30    1
     4     1    31    1
     5     2    28   ar
     6     2     3   ar
     7     3     4   ar
     8     3    32    1
     9     4     5   ar
    10     5     6    1
    11     5    27   ar
    12     6     7    1
    13     6    33    1
    14     6    34    1
    15     7     8    1
    16     7    35    1
    17     8     9    1
    18     8    36    1
    19     8    37    1
    20     9    10    1
    21     9    11    1
    22     9    23    1
    23    11    12   am
    24    11    38    1
    25    12    13    2
    26    12    14    1
    27    14    15    1
    28    14    22    1
    29    14    16    1
    30    16    17    1
    31    16    39    1
    32    16    40    1
    33    17    18    1
    34    17    41    1
    35    17    42    1
    36    18    19    1
    37    18    20    1
    38    18    21    1
    39    20    43    1
    40    20    44    1
    41    20    45    1
    42    21    22    1
    43    21    46    1
    44    21    47    1
    45    22    48    1
    46    22    49    1
    47    23    24    1
    48    23    25    1
    49    23    26    1
    50    24    50    1
    51    24    51    1
    52    24    52    1
    53    25    53    1
    54    25    54    1
    55    25    55    1
    56    26    56    1
    57    26    57    1
    58    26    58    1
    59    27    28   ar
    60    28    59    1
@<TRIPOS>SUBSTRUCTURE
     1 ZINC001284642199        1 TEMP              0 ****  ****    0 ROOT


##########                                Name:    ZINC001289445798
##########                DOCK_Rotatable_Bonds:                  10
##########                         Heavy_Atoms:                  25
##########                    Molecular_Weight:             352.434
##########                DOCK_Rotatable_Bonds:                  10
##########                       Formal_Charge:          0.00999932
##########                     HBond_Acceptors:                   8
##########                        HBond_Donors:                   2
##########                         Heavy_Atoms:                  25
##########                          Grid_Score:          -32.360882
##########                     Grid_vdw_energy:          -30.179062
##########                      Grid_es_energy:           -2.181820
##########           Internal_energy_repulsive:           18.922497

@<TRIPOS>MOLECULE
ZINC001289445798
 53 54 1 0 0
SMALL
USER_CHARGES


@<TRIPOS>ATOM
      1 C1         -1.4457    0.8812   47.5331 C.3     1  ZINC001289445798   -0.1500
      2 C2          0.0370    1.2572   47.5620 C.3     1  ZINC001289445798    0.0600
      3 O3          0.2429    2.3110   48.5050 O.3     1  ZINC001289445798   -0.3700
      4 C4          0.2753    1.8754   49.8655 C.3     1  ZINC001289445798    0.1100
      5 H5         -0.0654    0.8417   49.9243 H       1  ZINC001289445798    0.0700
      6 C6         -0.6429    2.7637   50.7074 C.3     1  ZINC001289445798   -0.1400
      7 C7         -1.7568    3.2965   49.8434 C.2     1  ZINC001289445798    0.5400
      8 O8         -1.5321    4.1749   49.0378 O.2     1  ZINC001289445798   -0.5200
      9 N9         -3.0025    2.7970   49.9660 N.am    1  ZINC001289445798   -0.6200
     10 C10        -3.4141    1.7413   50.9028 C.3     1  ZINC001289445798    0.1000
     11 C11        -4.9283    1.5186   50.7058 C.3     1  ZINC001289445798    0.1400
     12 H12        -5.1106    0.6840   50.0289 H       1  ZINC001289445798    0.1200
     13 N13        -5.5910    1.2941   51.9928 N.am    1  ZINC001289445798   -0.7200
     14 C14        -6.6609    0.4776   52.0664 C.2     1  ZINC001289445798    0.6000
     15 O15        -7.0770   -0.0715   51.0642 O.2     1  ZINC001289445798   -0.5100
     16 C16        -7.3256    0.2506   53.3597 C.2     1  ZINC001289445798   -0.0500
     17 C17        -8.5820   -0.2929   53.5638 C.2     1  ZINC001289445798   -0.1400
     18 C18        -8.7609   -0.3010   54.9490 C.2     1  ZINC001289445798    0.0000
     19 N19        -7.6837    0.2018   55.4959 N.2     1  ZINC001289445798   -0.2700
     20 N20        -6.8238    0.5286   54.5994 N.pl3   1  ZINC001289445798   -0.3800
     21 C21        -5.3959    2.8540   50.0688 C.3     1  ZINC001289445798    0.0700
     22 H22        -5.5654    3.6129   50.8326 H       1  ZINC001289445798    0.0900
     23 O23        -6.5680    2.6599   49.2745 O.3     1  ZINC001289445798   -0.3700
     24 C24        -7.5578    3.6770   49.4410 C.3     1  ZINC001289445798    0.0300
     25 C25        -4.1795    3.2232   49.1874 C.3     1  ZINC001289445798    0.0800
     26 C26         1.7064    1.9717   50.3980 C.3     1  ZINC001289445798   -0.1100
     27 C27         1.7963    1.2618   51.7503 C.3     1  ZINC001289445798   -0.1500
     28 C28         2.6648    1.3063   49.4081 C.3     1  ZINC001289445798   -0.1500
     29 H29        -2.0353    1.7502   47.2412 H       1  ZINC001289445798    0.0600
     30 H30        -1.6028    0.0773   46.8139 H       1  ZINC001289445798    0.0700
     31 H31        -1.7554    0.5480   48.5236 H       1  ZINC001289445798    0.0600
     32 H32         0.6267    0.3882   47.8539 H       1  ZINC001289445798    0.0500
     33 H33         0.3467    1.5903   46.5714 H       1  ZINC001289445798    0.0500
     34 H34        -1.0650    2.1787   51.5246 H       1  ZINC001289445798    0.1100
     35 H35        -0.0693    3.5962   51.1150 H       1  ZINC001289445798    0.1000
     36 H36        -2.8725    0.8207   50.6850 H       1  ZINC001289445798    0.0800
     37 H37        -3.2159    2.0568   51.9271 H       1  ZINC001289445798    0.0800
     38 H38        -5.2600    1.7330   52.7920 H       1  ZINC001289445798    0.4000
     39 H39        -9.2764   -0.6374   52.8118 H       1  ZINC001289445798    0.1700
     40 H40        -9.6337   -0.6584   55.4752 H       1  ZINC001289445798    0.1900
     41 H41        -5.9537    0.9195   54.7755 H       1  ZINC001289445798    0.4400
     42 H42        -8.4152    3.4572   48.8048 H       1  ZINC001289445798    0.0900
     43 H43        -7.8767    3.7066   50.4829 H       1  ZINC001289445798    0.0400
     44 H44        -7.1367    4.6429   49.1622 H       1  ZINC001289445798    0.0500
     45 H45        -4.1522    4.2983   49.0098 H       1  ZINC001289445798    0.0900
     46 H46        -4.2183    2.6825   48.2417 H       1  ZINC001289445798    0.0900
     47 H47         1.9794    3.0200   50.5191 H       1  ZINC001289445798    0.0800
     48 H48         1.5235    0.2134   51.6292 H       1  ZINC001289445798    0.0600
     49 H49         2.8159    1.3303   52.1296 H       1  ZINC001289445798    0.0600
     50 H50         1.1136    1.7358   52.4556 H       1  ZINC001289445798    0.0600
     51 H51         2.6737    1.8710   48.4758 H       1  ZINC001289445798    0.0600
     52 H52         3.6690    1.2877   49.8312 H       1  ZINC001289445798    0.0600
     53 H53         2.3341    0.2864   49.2119 H       1  ZINC001289445798    0.0500
@<TRIPOS>BOND
     1     1     2    1
     2     1    29    1
     3     1    30    1
     4     1    31    1
     5     2     3    1
     6     2    32    1
     7     2    33    1
     8     3     4    1
     9     4     5    1
    10     4     6    1
    11     4    26    1
    12     6     7    1
    13     6    34    1
    14     6    35    1
    15     7     8    2
    16     7     9   am
    17     9    25    1
    18     9    10    1
    19    10    11    1
    20    10    36    1
    21    10    37    1
    22    11    12    1
    23    11    13    1
    24    11    21    1
    25    13    14   am
    26    13    38    1
    27    14    15    2
    28    14    16    1
    29    16    20    1
    30    16    17    2
    31    17    18    1
    32    17    39    1
    33    18    19    2
    34    18    40    1
    35    19    20    1
    36    20    41    1
    37    21    22    1
    38    21    23    1
    39    21    25    1
    40    23    24    1
    41    24    42    1
    42    24    43    1
    43    24    44    1
    44    25    45    1
    45    25    46    1
    46    26    27    1
    47    26    28    1
    48    26    47    1
    49    27    48    1
    50    27    49    1
    51    27    50    1
    52    28    51    1
    53    28    52    1
    54    28    53    1
@<TRIPOS>SUBSTRUCTURE
     1 ZINC001289445798        1 TEMP              0 ****  ****    0 ROOT


##########                                Name:    ZINC000563265674
##########                DOCK_Rotatable_Bonds:                   7
##########                         Heavy_Atoms:                  25
##########                    Molecular_Weight:             386.859
##########                DOCK_Rotatable_Bonds:                   7
##########                       Formal_Charge:          0.00999963
##########                     HBond_Acceptors:                  10
##########                        HBond_Donors:                   2
##########                         Heavy_Atoms:                  25
##########                          Grid_Score:          -32.345600
##########                     Grid_vdw_energy:          -29.990274
##########                      Grid_es_energy:           -2.355325
##########           Internal_energy_repulsive:           13.478671

@<TRIPOS>MOLECULE
ZINC000563265674
 44 45 1 0 0
SMALL
USER_CHARGES


@<TRIPOS>ATOM
      1 C1          0.4828    5.7012   42.6662 C.3     1  ZINC000563265674   -0.0600
      2 C2          0.6547    4.3117   43.2236 C.2     1  ZINC000563265674    0.1700
      3 N3          1.6240    3.4894   42.9537 N.2     1  ZINC000563265674   -0.3800
      4 O4          1.4754    2.4509   43.5627 O.3     1  ZINC000563265674    0.0900
      5 C5          0.3634    2.5141   44.3013 C.2     1  ZINC000563265674    0.1900
      6 C6         -0.1782    1.4342   45.2022 C.3     1  ZINC000563265674    0.2100
      7 C7         -1.1234    0.5323   44.4059 C.3     1  ZINC000563265674   -0.1400
      8 C8          0.9805    0.5998   45.7517 C.3     1  ZINC000563265674   -0.1800
      9 N9         -0.9112    2.0486   46.3171 N.3     1  ZINC000563265674   -0.6600
     10 C10        -1.1754    1.0672   47.3778 C.3     1  ZINC000563265674    0.0400
     11 C11        -2.1653    1.6415   48.3583 C.2     1  ZINC000563265674    0.5200
     12 O12        -2.9865    2.4528   47.9861 O.2     1  ZINC000563265674   -0.4900
     13 N13        -2.1381    1.2536   49.6487 N.am    1  ZINC000563265674   -0.6700
     14 C14        -3.0576    1.7870   50.5595 C.ar    1  ZINC000563265674    0.1400
     15 C15        -4.3764    1.3540   50.5508 C.ar    1  ZINC000563265674   -0.0300
     16 C16        -5.2815    1.8819   51.4511 C.ar    1  ZINC000563265674   -0.6400
     17 S17        -6.9555    1.3322   51.4407 S.o2    1  ZINC000563265674    2.5000
     18 C18        -6.8409   -0.4706   51.6064 C.3     1  ZINC000563265674   -0.6500
     19 O19        -7.5201    1.9057   52.6118 O.2     1  ZINC000563265674   -0.9300
     20 O20        -7.4321    1.6848   50.1493 O.2     1  ZINC000563265674   -0.9300
     21 C21        -4.8755    2.8408   52.3607 C.ar    1  ZINC000563265674   -0.0300
     22 C22        -3.5626    3.2753   52.3724 C.ar    1  ZINC000563265674   -0.1100
     23 C23        -2.6508    2.7473   51.4784 C.ar    1  ZINC000563265674   -0.0200
     24 Cl24       -1.0027    3.2924   51.4938 Cl      1  ZINC000563265674   -0.0500
     25 N25        -0.1638    3.6971   44.0960 N.2     1  ZINC000563265674   -0.4700
     26 H26         0.9885    6.4176   43.3137 H       1  ZINC000563265674    0.0900
     27 H27         0.9142    5.7476   41.6663 H       1  ZINC000563265674    0.0900
     28 H28        -0.5788    5.9436   42.6155 H       1  ZINC000563265674    0.0900
     29 H29        -0.5795    0.0764   43.5785 H       1  ZINC000563265674    0.0800
     30 H30        -1.5151   -0.2488   45.0574 H       1  ZINC000563265674    0.0800
     31 H31        -1.9488    1.1267   44.0143 H       1  ZINC000563265674    0.0700
     32 H32         1.6539    1.2423   46.3191 H       1  ZINC000563265674    0.0700
     33 H33         0.5888   -0.1813   46.4033 H       1  ZINC000563265674    0.0800
     34 H34         1.5245    0.1440   44.9245 H       1  ZINC000563265674    0.0800
     35 H35        -0.4138    2.8481   46.6800 H       1  ZINC000563265674    0.3600
     36 H36        -1.5855    0.1582   46.9378 H       1  ZINC000563265674    0.1200
     37 H37        -0.2454    0.8326   47.8956 H       1  ZINC000563265674    0.0800
     38 H38        -1.4814    0.6047   49.9464 H       1  ZINC000563265674    0.4200
     39 H39        -4.6947    0.6053   49.8405 H       1  ZINC000563265674    0.1700
     40 H40        -6.3371   -0.7183   52.5407 H       1  ZINC000563265674    0.1300
     41 H41        -7.8428   -0.8997   51.6090 H       1  ZINC000563265674    0.1400
     42 H42        -6.2737   -0.8771   50.7690 H       1  ZINC000563265674    0.1400
     43 H43        -5.5854    3.2517   53.0632 H       1  ZINC000563265674    0.1500
     44 H44        -3.2486    4.0247   53.0839 H       1  ZINC000563265674    0.1500
@<TRIPOS>BOND
     1     1     2    1
     2     1    26    1
     3     1    27    1
     4     1    28    1
     5     2    25    1
     6     2     3    2
     7     3     4    1
     8     4     5    1
     9     5     6    1
    10     5    25    2
    11     6     7    1
    12     6     8    1
    13     6     9    1
    14     7    29    1
    15     7    30    1
    16     7    31    1
    17     8    32    1
    18     8    33    1
    19     8    34    1
    20     9    10    1
    21     9    35    1
    22    10    11    1
    23    10    36    1
    24    10    37    1
    25    11    12    2
    26    11    13   am
    27    13    14    1
    28    13    38    1
    29    14    23   ar
    30    14    15   ar
    31    15    16   ar
    32    15    39    1
    33    16    17    1
    34    16    21   ar
    35    17    18    1
    36    17    19    2
    37    17    20    2
    38    18    40    1
    39    18    41    1
    40    18    42    1
    41    21    22   ar
    42    21    43    1
    43    22    23   ar
    44    22    44    1
    45    23    24    1
@<TRIPOS>SUBSTRUCTURE
     1 ZINC000563265674        1 TEMP              0 ****  ****    0 ROOT


##########                                Name:    ZINC000826435081
##########                DOCK_Rotatable_Bonds:                   7
##########                         Heavy_Atoms:                  28
##########                    Molecular_Weight:             388.361
##########                DOCK_Rotatable_Bonds:                   7
##########                       Formal_Charge:           0.0099996
##########                     HBond_Acceptors:                  12
##########                        HBond_Donors:                   3
##########                         Heavy_Atoms:                  28
##########                          Grid_Score:          -32.324947
##########                     Grid_vdw_energy:          -30.049923
##########                      Grid_es_energy:           -2.275023
##########           Internal_energy_repulsive:            8.938394

@<TRIPOS>MOLECULE
ZINC000826435081
 45 48 1 0 0
SMALL
USER_CHARGES


@<TRIPOS>ATOM
      1 O1        -10.0017   -0.1910   63.2964 O.2     1  ZINC000826435081   -0.5700
      2 C2         -8.9087   -0.6192   62.9794 C.2     1  ZINC000826435081    0.7200
      3 N3         -7.8850   -0.5677   63.8545 N.am    1  ZINC000826435081   -0.7300
      4 C4         -8.0875    0.0097   65.1855 C.3     1  ZINC000826435081    0.1500
      5 C5         -7.8259    1.5162   65.1332 C.3     1  ZINC000826435081    0.0400
      6 H6         -6.7995    1.6968   64.8136 H       1  ZINC000826435081    0.0800
      7 C7         -8.0435    2.1221   66.5227 C.3     1  ZINC000826435081    0.0300
      8 O8         -7.9064    3.5440   66.4415 O.3     1  ZINC000826435081   -0.3800
      9 C9         -8.8110    4.1546   65.5163 C.3     1  ZINC000826435081    0.0200
     10 C10        -8.5934    3.5487   64.1267 C.3     1  ZINC000826435081    0.0200
     11 O11        -8.7294    2.1267   64.2068 O.3     1  ZINC000826435081   -0.3700
     12 N12        -8.7224   -1.1504   61.7548 N.am    1  ZINC000826435081   -0.6400
     13 C13        -9.7866   -1.2039   60.8449 C.2     1  ZINC000826435081    0.3300
     14 N14       -10.3878   -2.2931   60.4272 N.2     1  ZINC000826435081   -0.2800
     15 N15       -11.3948   -1.9199   59.5278 N.pl3   1  ZINC000826435081   -0.3300
     16 C16       -12.2646   -2.7885   58.8591 C.ar    1  ZINC000826435081    0.2200
     17 C17       -11.8636   -3.4068   57.6842 C.ar    1  ZINC000826435081   -0.1300
     18 C18       -12.7229   -4.2644   57.0241 C.ar    1  ZINC000826435081   -0.0500
     19 C19       -13.9868   -4.5119   57.5285 C.ar    1  ZINC000826435081   -0.1500
     20 C20       -14.4011   -3.9028   58.6990 C.ar    1  ZINC000826435081    0.1500
     21 F21       -15.6362   -4.1475   59.1886 F       1  ZINC000826435081   -0.1100
     22 C22       -13.5398   -3.0406   59.3763 C.ar    1  ZINC000826435081   -0.0500
     23 C23       -13.9780   -2.3841   60.6324 C.2     1  ZINC000826435081    0.2100
     24 N24       -14.2044   -2.9717   61.7908 N.2     1  ZINC000826435081   -0.2800
     25 N25       -14.5671   -2.0629   62.6295 N.pl3   1  ZINC000826435081   -0.2300
     26 N26       -14.5778   -0.9187   62.0398 N.2     1  ZINC000826435081   -0.0500
     27 N27       -14.2154   -1.0767   60.8121 N.2     1  ZINC000826435081   -0.2300
     28 C28       -11.3778   -0.5663   59.4194 C.2     1  ZINC000826435081    0.0700
     29 C29       -10.3982   -0.1005   60.2272 C.2     1  ZINC000826435081   -0.2400
     30 H30        -7.0141   -0.9130   63.6030 H       1  ZINC000826435081    0.4000
     31 H31        -9.1134   -0.1699   65.5073 H       1  ZINC000826435081    0.0800
     32 H32        -7.3988   -0.4543   65.8916 H       1  ZINC000826435081    0.0900
     33 H33        -9.0437    1.8723   66.8765 H       1  ZINC000826435081    0.0700
     34 H34        -7.3013    1.7236   67.2142 H       1  ZINC000826435081    0.1100
     35 H35        -9.8370    3.9730   65.8361 H       1  ZINC000826435081    0.0600
     36 H36        -8.6245    5.2279   65.4789 H       1  ZINC000826435081    0.1100
     37 H37        -9.3356    3.9473   63.4351 H       1  ZINC000826435081    0.1100
     38 H38        -7.5932    3.7986   63.7729 H       1  ZINC000826435081    0.0600
     39 H39        -7.8515   -1.4956   61.5033 H       1  ZINC000826435081    0.4100
     40 H40       -10.8783   -3.2175   57.2845 H       1  ZINC000826435081    0.1500
     41 H41       -12.4061   -4.7436   56.1095 H       1  ZINC000826435081    0.1500
     42 H42       -14.6527   -5.1829   57.0061 H       1  ZINC000826435081    0.1500
     43 H43       -14.7962   -2.2170   63.5594 H       1  ZINC000826435081    0.4800
     44 H44       -12.0324    0.0316   58.8025 H       1  ZINC000826435081    0.1800
     45 H45       -10.1288    0.9360   60.3668 H       1  ZINC000826435081    0.1800
@<TRIPOS>BOND
     1     1     2    2
     2     2     3   am
     3     2    12   am
     4     3     4    1
     5     3    30    1
     6     4     5    1
     7     4    31    1
     8     4    32    1
     9     5     6    1
    10     5    11    1
    11     5     7    1
    12     7     8    1
    13     7    33    1
    14     7    34    1
    15     8     9    1
    16     9    10    1
    17     9    35    1
    18     9    36    1
    19    10    11    1
    20    10    37    1
    21    10    38    1
    22    12    13    1
    23    12    39    1
    24    13    29    1
    25    13    14    2
    26    14    15    1
    27    15    16    1
    28    15    28    1
    29    16    22   ar
    30    16    17   ar
    31    17    18   ar
    32    17    40    1
    33    18    19   ar
    34    18    41    1
    35    19    20   ar
    36    19    42    1
    37    20    21    1
    38    20    22   ar
    39    22    23    1
    40    23    27    1
    41    23    24    2
    42    24    25    1
    43    25    26    1
    44    25    43    1
    45    26    27    2
    46    28    29    2
    47    28    44    1
    48    29    45    1
@<TRIPOS>SUBSTRUCTURE
     1 ZINC000826435081        1 TEMP              0 ****  ****    0 ROOT


##########                                Name:    ZINC001018437438
##########                DOCK_Rotatable_Bonds:                   8
##########                         Heavy_Atoms:                  24
##########                    Molecular_Weight:              333.39
##########                DOCK_Rotatable_Bonds:                   8
##########                       Formal_Charge:        -4.17233e-07
##########                     HBond_Acceptors:                   8
##########                        HBond_Donors:                   4
##########                         Heavy_Atoms:                  24
##########                          Grid_Score:          -32.318554
##########                     Grid_vdw_energy:          -29.477081
##########                      Grid_es_energy:           -2.841472
##########           Internal_energy_repulsive:           87.239799

@<TRIPOS>MOLECULE
ZINC001018437438
 47 49 1 0 0
SMALL
USER_CHARGES


@<TRIPOS>ATOM
      1 C1        -11.4194   -2.3880   56.4622 C.3     1  ZINC001018437438   -0.1400
      2 C2        -10.5152   -2.3532   57.6958 C.3     1  ZINC001018437438    0.1400
      3 H3         -9.8568   -3.2220   57.6909 H       1  ZINC001018437438    0.0700
      4 C4         -9.6753   -1.0722   57.6811 C.3     1  ZINC001018437438   -0.1300
      5 C5         -8.8769   -0.9754   58.9832 C.3     1  ZINC001018437438   -0.1300
      6 C6         -9.8403   -0.9076   60.1704 C.3     1  ZINC001018437438    0.1300
      7 H7        -10.4961   -0.0443   60.0579 H       1  ZINC001018437438    0.1000
      8 N8         -9.0760   -0.7826   61.4139 N.am    1  ZINC001018437438   -0.7200
      9 C9         -9.5952   -0.1086   62.4591 C.2     1  ZINC001018437438    0.6000
     10 O10       -10.6990    0.3945   62.3706 O.2     1  ZINC001018437438   -0.5100
     11 C11        -8.8266    0.0186   63.7076 C.2     1  ZINC001018437438   -0.0400
     12 C12        -9.1612    0.7779   64.8154 C.2     1  ZINC001018437438   -0.1400
     13 C13        -8.1269    0.5720   65.7312 C.2     1  ZINC001018437438    0.0600
     14 C14        -8.0233    1.1829   67.1048 C.3     1  ZINC001018437438   -0.0800
     15 C15        -6.6354    1.2504   67.7453 C.3     1  ZINC001018437438   -0.1700
     16 C16        -7.3020    2.5267   67.2278 C.3     1  ZINC001018437438   -0.1600
     17 N17        -7.2641   -0.2463   65.1849 N.2     1  ZINC001018437438   -0.2600
     18 N18        -7.6430   -0.5937   64.0077 N.pl3   1  ZINC001018437438   -0.3800
     19 C19       -10.6821   -2.1868   60.2133 C.3     1  ZINC001018437438    0.1000
     20 N20       -11.3400   -2.3673   58.9116 N.am    1  ZINC001018437438   -0.6100
     21 C21       -12.6747   -2.5375   58.8345 C.2     1  ZINC001018437438    0.5200
     22 O22       -13.2064   -2.6808   57.7538 O.2     1  ZINC001018437438   -0.4800
     23 C23       -13.5066   -2.5495   60.0911 C.3     1  ZINC001018437438   -0.1700
     24 C24       -14.9243   -2.9314   59.7512 C.2     1  ZINC001018437438    0.5200
     25 N25       -15.2620   -4.2308   59.6323 N.am    1  ZINC001018437438   -0.8600
     26 O26       -15.7612   -2.0696   59.5849 O.2     1  ZINC001018437438   -0.5000
     27 H27       -12.1438   -1.5755   56.5196 H       1  ZINC001018437438    0.0700
     28 H28       -10.8131   -2.2713   55.5639 H       1  ZINC001018437438    0.0500
     29 H29       -11.9455   -3.3418   56.4239 H       1  ZINC001018437438    0.0800
     30 H30        -8.9890   -1.0969   56.8346 H       1  ZINC001018437438    0.0900
     31 H31       -10.3325   -0.2073   57.5921 H       1  ZINC001018437438    0.0700
     32 H32        -8.2380   -1.8528   59.0835 H       1  ZINC001018437438    0.0700
     33 H33        -8.2596   -0.0773   58.9647 H       1  ZINC001018437438    0.0800
     34 H34        -8.1962   -1.1848   61.4849 H       1  ZINC001018437438    0.4000
     35 H35       -10.0361    1.3979   64.9443 H       1  ZINC001018437438    0.1700
     36 H36        -8.8738    1.0062   67.7633 H       1  ZINC001018437438    0.1200
     37 H37        -6.5725    1.1179   68.8254 H       1  ZINC001018437438    0.1000
     38 H38        -5.7973    0.8527   67.1730 H       1  ZINC001018437438    0.1000
     39 H39        -6.9023    2.9687   66.3151 H       1  ZINC001018437438    0.1000
     40 H40        -7.6776    3.2337   67.9674 H       1  ZINC001018437438    0.1000
     41 H41        -7.1591   -1.1938   63.4191 H       1  ZINC001018437438    0.4400
     42 H42       -10.0374   -3.0419   60.4162 H       1  ZINC001018437438    0.0700
     43 H43       -11.4366   -2.1017   60.9954 H       1  ZINC001018437438    0.0900
     44 H44       -13.0937   -3.2737   60.7932 H       1  ZINC001018437438    0.1200
     45 H45       -13.4959   -1.5580   60.5435 H       1  ZINC001018437438    0.1200
     46 H46       -16.1741   -4.4768   59.4125 H       1  ZINC001018437438    0.4000
     47 H47       -14.5928   -4.9200   59.7667 H       1  ZINC001018437438    0.4000
@<TRIPOS>BOND
     1     1     2    1
     2     1    27    1
     3     1    28    1
     4     1    29    1
     5     2     3    1
     6     2    20    1
     7     2     4    1
     8     4     5    1
     9     4    30    1
    10     4    31    1
    11     5     6    1
    12     5    32    1
    13     5    33    1
    14     6     7    1
    15     6     8    1
    16     6    19    1
    17     8     9   am
    18     8    34    1
    19     9    10    2
    20     9    11    1
    21    11    18    1
    22    11    12    2
    23    12    13    1
    24    12    35    1
    25    13    14    1
    26    13    17    2
    27    14    16    1
    28    14    15    1
    29    14    36    1
    30    15    16    1
    31    15    37    1
    32    15    38    1
    33    16    39    1
    34    16    40    1
    35    17    18    1
    36    18    41    1
    37    19    20    1
    38    19    42    1
    39    19    43    1
    40    20    21   am
    41    21    22    2
    42    21    23    1
    43    23    24    1
    44    23    44    1
    45    23    45    1
    46    24    25   am
    47    24    26    2
    48    25    46    1
    49    25    47    1
@<TRIPOS>SUBSTRUCTURE
     1 ZINC001018437438        1 TEMP              0 ****  ****    0 ROOT


##########                                Name:    ZINC000859496582
##########                DOCK_Rotatable_Bonds:                  10
##########                         Heavy_Atoms:                  26
##########                    Molecular_Weight:             361.438
##########                DOCK_Rotatable_Bonds:                  10
##########                       Formal_Charge:           0.0100006
##########                     HBond_Acceptors:                   6
##########                        HBond_Donors:                   0
##########                         Heavy_Atoms:                  26
##########                          Grid_Score:          -32.318081
##########                     Grid_vdw_energy:          -29.487249
##########                      Grid_es_energy:           -2.830832
##########           Internal_energy_repulsive:           18.785261

@<TRIPOS>MOLECULE
ZINC000859496582
 53 54 1 0 0
SMALL
USER_CHARGES


@<TRIPOS>ATOM
      1 C1         -5.5305   -0.1029   67.4051 C.3     1  ZINC000859496582    0.0300
      2 O2         -6.6983   -0.9276   67.6589 O.3     1  ZINC000859496582   -0.3600
      3 C3         -7.8727   -0.4836   67.1841 C.2     1  ZINC000859496582    0.4600
      4 O4         -8.8795   -1.1266   67.3650 O.2     1  ZINC000859496582   -0.5100
      5 C5         -7.9354    0.8169   66.4252 C.3     1  ZINC000859496582   -0.1100
      6 C6         -7.6734    0.5544   64.9408 C.3     1  ZINC000859496582   -0.1100
      7 C7         -8.9272   -0.0439   64.2997 C.3     1  ZINC000859496582   -0.1200
      8 C8         -8.6355   -0.3944   62.8392 C.3     1  ZINC000859496582    0.0700
      9 O9         -9.7736   -1.0966   62.2734 O.3     1  ZINC000859496582   -0.3500
     10 C10        -9.5847   -1.7149   61.0971 C.2     1  ZINC000859496582    0.4700
     11 O11        -8.4733   -1.7996   60.6307 O.2     1  ZINC000859496582   -0.5000
     12 C12       -10.7589   -2.3033   60.3581 C.3     1  ZINC000859496582   -0.1000
     13 H13       -11.1797   -3.1243   60.9385 H       1  ZINC000859496582    0.1200
     14 C14       -10.2956   -2.8255   58.9961 C.3     1  ZINC000859496582   -0.1100
     15 C15       -11.4806   -3.4528   58.2584 C.3     1  ZINC000859496582   -0.1300
     16 C16       -12.5556   -2.3861   58.0271 C.3     1  ZINC000859496582    0.1100
     17 N17       -12.9027   -1.7767   59.3182 N.am    1  ZINC000859496582   -0.6100
     18 C18       -14.1846   -1.7261   59.7311 C.2     1  ZINC000859496582    0.5700
     19 O19       -15.0666   -2.1871   59.0332 O.2     1  ZINC000859496582   -0.5300
     20 C20       -14.5181   -1.1097   61.0329 C.ar    1  ZINC000859496582   -0.1400
     21 C21       -14.7249   -1.9122   62.1560 C.ar    1  ZINC000859496582   -0.0900
     22 C22       -15.0354   -1.3306   63.3678 C.ar    1  ZINC000859496582   -0.1200
     23 C23       -15.1423    0.0450   63.4713 C.ar    1  ZINC000859496582   -0.0600
     24 C24       -15.4821    0.6733   64.7982 C.3     1  ZINC000859496582   -0.1200
     25 C25       -14.9379    0.8462   62.3620 C.ar    1  ZINC000859496582   -0.1200
     26 C26       -14.6217    0.2776   61.1455 C.ar    1  ZINC000859496582   -0.0600
     27 C27       -11.8260   -1.2238   60.1512 C.3     1  ZINC000859496582    0.1100
     28 H28        -5.6751    0.8798   67.8539 H       1  ZINC000859496582    0.0600
     29 H29        -4.6503   -0.5755   67.8410 H       1  ZINC000859496582    0.1000
     30 H30        -5.3893    0.0060   66.3298 H       1  ZINC000859496582    0.0600
     31 H31        -8.9232    1.2613   66.5468 H       1  ZINC000859496582    0.1100
     32 H32        -7.1795    1.5003   66.8122 H       1  ZINC000859496582    0.1100
     33 H33        -7.4237    1.4921   64.4445 H       1  ZINC000859496582    0.0800
     34 H34        -6.8433   -0.1443   64.8364 H       1  ZINC000859496582    0.0800
     35 H35        -9.2161   -0.9459   64.8391 H       1  ZINC000859496582    0.0800
     36 H36        -9.7394    0.6817   64.3439 H       1  ZINC000859496582    0.0800
     37 H37        -8.4559    0.5206   62.2748 H       1  ZINC000859496582    0.0700
     38 H38        -7.7530   -1.0321   62.7880 H       1  ZINC000859496582    0.0700
     39 H39        -9.8970   -1.9996   58.4069 H       1  ZINC000859496582    0.0800
     40 H40        -9.5189   -3.5765   59.1402 H       1  ZINC000859496582    0.0800
     41 H41       -11.1451   -3.8454   57.2985 H       1  ZINC000859496582    0.0900
     42 H42       -11.8952   -4.2629   58.8584 H       1  ZINC000859496582    0.0700
     43 H43       -12.1715   -1.6205   57.3531 H       1  ZINC000859496582    0.0700
     44 H44       -13.4413   -2.8484   57.5914 H       1  ZINC000859496582    0.1000
     45 H45       -14.6425   -2.9861   62.0764 H       1  ZINC000859496582    0.1300
     46 H46       -15.1958   -1.9505   64.2376 H       1  ZINC000859496582    0.1300
     47 H47       -14.5639    0.8853   65.3457 H       1  ZINC000859496582    0.0800
     48 H48       -16.0283    1.6016   64.6313 H       1  ZINC000859496582    0.0700
     49 H49       -16.1003   -0.0128   65.3773 H       1  ZINC000859496582    0.0700
     50 H50       -15.0225    1.9193   62.4495 H       1  ZINC000859496582    0.1300
     51 H51       -14.4621    0.9043   60.2803 H       1  ZINC000859496582    0.1300
     52 H52       -12.2306   -0.9192   61.1164 H       1  ZINC000859496582    0.1100
     53 H53       -11.3819   -0.3633   59.6508 H       1  ZINC000859496582    0.0800
@<TRIPOS>BOND
     1     1     2    1
     2     1    28    1
     3     1    29    1
     4     1    30    1
     5     2     3    1
     6     3     4    2
     7     3     5    1
     8     5     6    1
     9     5    31    1
    10     5    32    1
    11     6     7    1
    12     6    33    1
    13     6    34    1
    14     7     8    1
    15     7    35    1
    16     7    36    1
    17     8     9    1
    18     8    37    1
    19     8    38    1
    20     9    10    1
    21    10    11    2
    22    10    12    1
    23    12    13    1
    24    12    27    1
    25    12    14    1
    26    14    15    1
    27    14    39    1
    28    14    40    1
    29    15    16    1
    30    15    41    1
    31    15    42    1
    32    16    17    1
    33    16    43    1
    34    16    44    1
    35    17    18   am
    36    17    27    1
    37    18    19    2
    38    18    20    1
    39    20    26   ar
    40    20    21   ar
    41    21    22   ar
    42    21    45    1
    43    22    23   ar
    44    22    46    1
    45    23    24    1
    46    23    25   ar
    47    24    47    1
    48    24    48    1
    49    24    49    1
    50    25    26   ar
    51    25    50    1
    52    26    51    1
    53    27    52    1
    54    27    53    1
@<TRIPOS>SUBSTRUCTURE
     1 ZINC000859496582        1 TEMP              0 ****  ****    0 ROOT


##########                                Name:    ZINC000790205345
##########                DOCK_Rotatable_Bonds:                   7
##########                         Heavy_Atoms:                  28
##########                    Molecular_Weight:             382.459
##########                DOCK_Rotatable_Bonds:                   7
##########                       Formal_Charge:          -0.0299997
##########                     HBond_Acceptors:                   6
##########                        HBond_Donors:                   0
##########                         Heavy_Atoms:                  28
##########                          Grid_Score:          -32.283657
##########                     Grid_vdw_energy:          -31.311024
##########                      Grid_es_energy:           -0.972633
##########           Internal_energy_repulsive:           50.851810

@<TRIPOS>MOLECULE
ZINC000790205345
 54 56 1 0 0
SMALL
USER_CHARGES


@<TRIPOS>ATOM
      1 C1        -14.9598   -4.0407   58.5133 C.3     1  ZINC000790205345   -0.1100
      2 C2        -13.5696   -3.5544   58.8330 C.ar    1  ZINC000790205345   -0.1300
      3 C3        -12.5804   -3.6106   57.8691 C.ar    1  ZINC000790205345   -0.0800
      4 C4        -11.3052   -3.1650   58.1594 C.ar    1  ZINC000790205345   -0.2100
      5 C5        -11.0180   -2.6609   59.4193 C.ar    1  ZINC000790205345    0.1300
      6 O6         -9.7647   -2.2214   59.7073 O.3     1  ZINC000790205345   -0.2900
      7 C7         -9.6402   -0.8765   60.1741 C.3     1  ZINC000790205345    0.0400
      8 C8         -8.5774   -0.1646   59.3773 C.2     1  ZINC000790205345    0.5200
      9 O9         -7.4051   -0.3697   59.6108 O.2     1  ZINC000790205345   -0.5100
     10 N10        -8.9297    0.6999   58.4052 N.am    1  ZINC000790205345   -0.6100
     11 C11       -10.3459    0.9489   58.1245 C.3     1  ZINC000790205345    0.0700
     12 C12        -7.8967    1.3906   57.6295 C.3     1  ZINC000790205345    0.1800
     13 H13        -6.9156    1.1607   58.0451 H       1  ZINC000790205345    0.1200
     14 C14        -8.1360    2.9005   57.6920 C.3     1  ZINC000790205345   -0.1600
     15 C15        -7.9546    0.9318   56.1952 C.ar    1  ZINC000790205345   -0.0700
     16 C16        -8.6713   -0.2024   55.8613 C.ar    1  ZINC000790205345   -0.1300
     17 C17        -8.7264   -0.6270   54.5462 C.ar    1  ZINC000790205345   -0.0900
     18 C18        -8.0657    0.0816   53.5621 C.ar    1  ZINC000790205345   -0.1500
     19 C19        -7.3453    1.2216   53.8942 C.ar    1  ZINC000790205345    0.1800
     20 N20        -6.6748    1.9421   52.8991 N.am    1  ZINC000790205345   -0.5700
     21 C21        -5.8735    3.1565   53.1152 C.3     1  ZINC000790205345    0.0600
     22 C22        -5.3746    3.5228   51.7041 C.3     1  ZINC000790205345    0.0400
     23 O23        -5.9411    2.4874   50.8498 O.3     1  ZINC000790205345   -0.3200
     24 C24        -6.6534    1.6347   51.5949 C.2     1  ZINC000790205345    0.6400
     25 O25        -7.2347    0.6740   51.1305 O.2     1  ZINC000790205345   -0.5000
     26 C26        -7.2962    1.6481   55.2146 C.ar    1  ZINC000790205345   -0.1400
     27 C27       -12.0128   -2.6055   60.3852 C.ar    1  ZINC000790205345   -0.1500
     28 C28       -13.2873   -3.0473   60.0882 C.ar    1  ZINC000790205345   -0.0500
     29 C29       -14.3684   -2.9871   61.1364 C.3     1  ZINC000790205345   -0.1200
     30 H30       -15.5501   -3.2163   58.1133 H       1  ZINC000790205345    0.0700
     31 H31       -14.9041   -4.8400   57.7743 H       1  ZINC000790205345    0.0600
     32 H32       -15.4305   -4.4176   59.4213 H       1  ZINC000790205345    0.0700
     33 H33       -12.8043   -4.0036   56.8883 H       1  ZINC000790205345    0.1300
     34 H34       -10.5325   -3.2095   57.4061 H       1  ZINC000790205345    0.1300
     35 H35       -10.5924   -0.3601   60.0526 H       1  ZINC000790205345    0.1000
     36 H36        -9.3617   -0.8820   61.2279 H       1  ZINC000790205345    0.0900
     37 H37       -10.7236    1.7093   58.8080 H       1  ZINC000790205345    0.0600
     38 H38       -10.4569    1.2964   57.0973 H       1  ZINC000790205345    0.0800
     39 H39       -10.9107    0.0265   58.2591 H       1  ZINC000790205345    0.0700
     40 H40        -9.1170    3.1304   57.2764 H       1  ZINC000790205345    0.0600
     41 H41        -8.0940    3.2323   58.7294 H       1  ZINC000790205345    0.0700
     42 H42        -7.3673    3.4144   57.1148 H       1  ZINC000790205345    0.0800
     43 H43        -9.1889   -0.7582   56.6291 H       1  ZINC000790205345    0.1300
     44 H44        -9.2864   -1.5137   54.2886 H       1  ZINC000790205345    0.1300
     45 H45        -8.1088   -0.2507   52.5354 H       1  ZINC000790205345    0.1300
     46 H46        -6.4923    3.9561   53.5221 H       1  ZINC000790205345    0.1000
     47 H47        -5.0325    2.9476   53.7764 H       1  ZINC000790205345    0.1000
     48 H48        -5.7451    4.5051   51.4109 H       1  ZINC000790205345    0.1100
     49 H49        -4.2856    3.4968   51.6651 H       1  ZINC000790205345    0.1100
     50 H50        -6.7370    2.5344   55.4760 H       1  ZINC000790205345    0.1600
     51 H51       -11.7917   -2.2137   61.3669 H       1  ZINC000790205345    0.1300
     52 H52       -14.8828   -2.0282   61.0731 H       1  ZINC000790205345    0.0700
     53 H53       -15.0819   -3.7939   60.9693 H       1  ZINC000790205345    0.0700
     54 H54       -13.9222   -3.0954   62.1250 H       1  ZINC000790205345    0.0700
@<TRIPOS>BOND
     1     1     2    1
     2     1    30    1
     3     1    31    1
     4     1    32    1
     5     2    28   ar
     6     2     3   ar
     7     3     4   ar
     8     3    33    1
     9     4     5   ar
    10     4    34    1
    11     5     6    1
    12     5    27   ar
    13     6     7    1
    14     7     8    1
    15     7    35    1
    16     7    36    1
    17     8     9    2
    18     8    10   am
    19    10    11    1
    20    10    12    1
    21    11    37    1
    22    11    38    1
    23    11    39    1
    24    12    13    1
    25    12    14    1
    26    12    15    1
    27    14    40    1
    28    14    41    1
    29    14    42    1
    30    15    26   ar
    31    15    16   ar
    32    16    17   ar
    33    16    43    1
    34    17    18   ar
    35    17    44    1
    36    18    19   ar
    37    18    45    1
    38    19    20    1
    39    19    26   ar
    40    20    24   am
    41    20    21    1
    42    21    22    1
    43    21    46    1
    44    21    47    1
    45    22    23    1
    46    22    48    1
    47    22    49    1
    48    23    24    1
    49    24    25    2
    50    26    50    1
    51    27    28   ar
    52    27    51    1
    53    28    29    1
    54    29    52    1
    55    29    53    1
    56    29    54    1
@<TRIPOS>SUBSTRUCTURE
     1 ZINC000790205345        1 TEMP              0 ****  ****    0 ROOT


##########                                Name:    ZINC001500042809
##########                DOCK_Rotatable_Bonds:                   9
##########                         Heavy_Atoms:                  24
##########                    Molecular_Weight:              346.45
##########                DOCK_Rotatable_Bonds:                   9
##########                       Formal_Charge:           0.0200001
##########                     HBond_Acceptors:                   6
##########                        HBond_Donors:                   2
##########                         Heavy_Atoms:                  24
##########                          Grid_Score:          -32.266716
##########                     Grid_vdw_energy:          -31.123827
##########                      Grid_es_energy:           -1.142889
##########           Internal_energy_repulsive:           10.024498

@<TRIPOS>MOLECULE
ZINC001500042809
 46 47 1 0 0
SMALL
USER_CHARGES


@<TRIPOS>ATOM
      1 C1         -9.8358   -0.5076   52.8999 C.3     1  ZINC001500042809    0.0200
      2 O2         -8.4641   -0.9011   52.9749 O.3     1  ZINC001500042809   -0.3100
      3 C3         -7.5414   -0.0034   52.5454 C.ar    1  ZINC001500042809    0.1600
      4 C4         -7.3038    1.1521   53.2806 C.ar    1  ZINC001500042809   -0.1600
      5 C5         -6.3686    2.0656   52.8479 C.ar    1  ZINC001500042809   -0.0200
      6 C6         -5.6578    1.8294   51.6683 C.ar    1  ZINC001500042809   -0.1800
      7 C7         -4.6545    2.8060   51.2010 C.2     1  ZINC001500042809    0.5600
      8 O8         -4.6767    3.9477   51.6185 O.2     1  ZINC001500042809   -0.5300
      9 N9         -3.7135    2.4320   50.3114 N.am    1  ZINC001500042809   -0.7300
     10 C10        -2.7165    3.4008   49.8489 C.3     1  ZINC001500042809    0.1300
     11 C11        -1.5770    2.6626   49.1438 C.3     1  ZINC001500042809   -0.1200
     12 H12        -0.7997    3.3745   48.8661 H       1  ZINC001500042809    0.0900
     13 C13        -0.9910    1.6097   50.0865 C.3     1  ZINC001500042809   -0.1500
     14 C14        -2.1145    1.9778   47.8855 C.3     1  ZINC001500042809    0.1300
     15 N15        -1.0164    1.7622   46.9400 N.am    1  ZINC001500042809   -0.7300
     16 C16        -1.2831    1.5208   45.6412 C.2     1  ZINC001500042809    0.5900
     17 O17        -2.4361    1.4833   45.2535 O.2     1  ZINC001500042809   -0.5200
     18 C18        -0.1845    1.3032   44.6954 C.2     1  ZINC001500042809   -0.2800
     19 C19        -0.1962    0.4145   43.6575 C.2     1  ZINC001500042809   -0.0100
     20 C20        -1.3696   -0.4776   43.3439 C.3     1  ZINC001500042809   -0.1100
     21 C21         0.9686    0.4157   42.9274 C.2     1  ZINC001500042809   -0.1500
     22 C22         1.9031    1.2747   43.3512 C.2     1  ZINC001500042809   -0.2200
     23 S23         1.3568    2.1492   44.7104 S.3     1  ZINC001500042809    0.1900
     24 C24        -5.9033    0.6692   50.9294 C.ar    1  ZINC001500042809   -0.0400
     25 C25        -6.8367   -0.2417   51.3713 C.ar    1  ZINC001500042809   -0.2200
     26 H26        -9.9914    0.3850   53.5058 H       1  ZINC001500042809    0.0600
     27 H27       -10.0961   -0.2931   51.8634 H       1  ZINC001500042809    0.0600
     28 H28       -10.4662   -1.3146   53.2734 H       1  ZINC001500042809    0.1000
     29 H29        -7.8536    1.3339   54.1922 H       1  ZINC001500042809    0.1400
     30 H30        -6.1851    2.9634   53.4193 H       1  ZINC001500042809    0.1400
     31 H31        -3.6964    1.5215   49.9775 H       1  ZINC001500042809    0.4000
     32 H32        -2.3201    3.9501   50.7029 H       1  ZINC001500042809    0.0800
     33 H33        -3.1831    4.0982   49.1532 H       1  ZINC001500042809    0.0800
     34 H34        -0.6081    2.0975   50.9830 H       1  ZINC001500042809    0.0600
     35 H35        -1.7683    0.8977   50.3642 H       1  ZINC001500042809    0.0600
     36 H36        -0.1792    1.0837   49.5842 H       1  ZINC001500042809    0.0600
     37 H37        -2.5561    1.0184   48.1545 H       1  ZINC001500042809    0.0800
     38 H38        -2.8728    2.6101   47.4236 H       1  ZINC001500042809    0.0800
     39 H39        -0.0973    1.7932   47.2488 H       1  ZINC001500042809    0.4000
     40 H40        -2.0393    0.0327   42.6516 H       1  ZINC001500042809    0.0800
     41 H41        -1.0123   -1.4015   42.8892 H       1  ZINC001500042809    0.0700
     42 H42        -1.9060   -0.7093   44.2640 H       1  ZINC001500042809    0.0900
     43 H43         1.1186   -0.2297   42.0746 H       1  ZINC001500042809    0.1500
     44 H44         2.8724    1.4003   42.8914 H       1  ZINC001500042809    0.1700
     45 H45        -5.3590    0.4853   50.0148 H       1  ZINC001500042809    0.1300
     46 H46        -7.0246   -1.1403   50.8025 H       1  ZINC001500042809    0.1400
@<TRIPOS>BOND
     1     1     2    1
     2     1    26    1
     3     1    27    1
     4     1    28    1
     5     2     3    1
     6     3    25   ar
     7     3     4   ar
     8     4     5   ar
     9     4    29    1
    10     5     6   ar
    11     5    30    1
    12     6     7    1
    13     6    24   ar
    14     7     8    2
    15     7     9   am
    16     9    10    1
    17     9    31    1
    18    10    11    1
    19    10    32    1
    20    10    33    1
    21    11    12    1
    22    11    13    1
    23    11    14    1
    24    13    34    1
    25    13    35    1
    26    13    36    1
    27    14    15    1
    28    14    37    1
    29    14    38    1
    30    15    16   am
    31    15    39    1
    32    16    17    2
    33    16    18    1
    34    18    23    1
    35    18    19    2
    36    19    20    1
    37    19    21    1
    38    20    40    1
    39    20    41    1
    40    20    42    1
    41    21    22    2
    42    21    43    1
    43    22    23    1
    44    22    44    1
    45    24    25   ar
    46    24    45    1
    47    25    46    1
@<TRIPOS>SUBSTRUCTURE
     1 ZINC001500042809        1 TEMP              0 ****  ****    0 ROOT


##########                                Name:    ZINC001342629575
##########                DOCK_Rotatable_Bonds:                   9
##########                         Heavy_Atoms:                  29
##########                    Molecular_Weight:             396.533
##########                DOCK_Rotatable_Bonds:                   9
##########                       Formal_Charge:         -0.00999976
##########                     HBond_Acceptors:                   6
##########                        HBond_Donors:                   0
##########                         Heavy_Atoms:                  29
##########                          Grid_Score:          -32.260853
##########                     Grid_vdw_energy:          -32.022709
##########                      Grid_es_energy:           -0.238145
##########           Internal_energy_repulsive:           21.978739

@<TRIPOS>MOLECULE
ZINC001342629575
 61 64 1 0 0
SMALL
USER_CHARGES


@<TRIPOS>ATOM
      1 C1         -8.9381   -1.3359   61.3733 C.2     1  ZINC001342629575   -0.1800
      2 C2         -9.0810   -2.0137   60.2614 C.2     1  ZINC001342629575   -0.1600
      3 C3        -10.3727   -2.7373   59.9808 C.3     1  ZINC001342629575   -0.0800
      4 C4        -11.3011   -1.8285   59.1726 C.3     1  ZINC001342629575    0.0500
      5 H5        -11.3102   -0.8324   59.6152 H       1  ZINC001342629575    0.0900
      6 C6        -10.8075   -1.7423   57.7514 C.2     1  ZINC001342629575    0.2000
      7 N7        -10.1914   -2.6805   57.0897 N.2     1  ZINC001342629575   -0.2700
      8 N8         -9.9121   -2.2723   55.9033 N.2     1  ZINC001342629575   -0.3000
      9 C9        -10.3385   -1.0417   55.7433 C.2     1  ZINC001342629575    0.3400
     10 N10       -10.2178   -0.2704   54.5983 N.3     1  ZINC001342629575   -0.4300
     11 C11       -11.3051   -0.5765   53.6333 C.3     1  ZINC001342629575    0.0400
     12 C12       -10.7633   -0.0930   52.2709 C.3     1  ZINC001342629575   -0.1200
     13 C13        -9.2281   -0.1102   52.4209 C.3     1  ZINC001342629575   -0.1200
     14 C14        -8.9714   -0.6027   53.8614 C.3     1  ZINC001342629575    0.0700
     15 H15        -8.8000   -1.6791   53.8703 H       1  ZINC001342629575    0.0900
     16 C16        -7.7760    0.1320   54.4714 C.3     1  ZINC001342629575    0.1000
     17 H17        -7.4898   -0.3430   55.4097 H       1  ZINC001342629575    0.0700
     18 C18        -8.1426    1.6103   54.7231 C.3     1  ZINC001342629575   -0.1400
     19 C19        -6.8333    2.3464   54.3287 C.3     1  ZINC001342629575   -0.1600
     20 C20        -6.3286    1.4489   53.1708 C.3     1  ZINC001342629575    0.0500
     21 O21        -6.6728    0.1071   53.5581 O.3     1  ZINC001342629575   -0.3700
     22 N22       -10.9284   -0.6671   56.9153 N.pl3   1  ZINC001342629575   -0.4600
     23 C23       -11.5528    0.6231   57.2183 C.3     1  ZINC001342629575    0.1100
     24 C24       -10.6413    1.4246   58.1498 C.3     1  ZINC001342629575    0.0500
     25 O25        -9.3205    0.8808   58.1077 O.3     1  ZINC001342629575   -0.3800
     26 C26        -8.3847    1.5614   58.9461 C.3     1  ZINC001342629575    0.0300
     27 C27       -12.6968   -2.3967   59.1860 C.ar    1  ZINC001342629575   -0.0900
     28 C28       -13.6764   -1.8056   59.9620 C.ar    1  ZINC001342629575   -0.0900
     29 C29       -14.9566   -2.3267   59.9742 C.ar    1  ZINC001342629575   -0.1200
     30 C30       -15.2576   -3.4387   59.2102 C.ar    1  ZINC001342629575   -0.1200
     31 C31       -14.2783   -4.0293   58.4335 C.ar    1  ZINC001342629575   -0.1200
     32 C32       -12.9992   -3.5055   58.4179 C.ar    1  ZINC001342629575   -0.1100
     33 H33        -8.0123   -0.8174   61.5745 H       1  ZINC001342629575    0.1000
     34 H34        -9.7477   -1.2919   62.0868 H       1  ZINC001342629575    0.1000
     35 H35        -8.2730   -2.0540   59.5459 H       1  ZINC001342629575    0.1000
     36 H36       -10.1653   -3.6433   59.4114 H       1  ZINC001342629575    0.0900
     37 H37       -10.8529   -3.0020   60.9227 H       1  ZINC001342629575    0.0800
     38 H38       -11.4988   -1.6487   53.6064 H       1  ZINC001342629575    0.0600
     39 H39       -12.2117   -0.0319   53.8968 H       1  ZINC001342629575    0.0800
     40 H40       -11.0737   -0.7726   51.4772 H       1  ZINC001342629575    0.0800
     41 H41       -11.1119    0.9184   52.0621 H       1  ZINC001342629575    0.0800
     42 H42        -8.7850   -0.7983   51.7010 H       1  ZINC001342629575    0.0800
     43 H43        -8.8233    0.8927   52.2858 H       1  ZINC001342629575    0.0800
     44 H44        -8.9692    1.9193   54.0833 H       1  ZINC001342629575    0.0900
     45 H45        -8.3803    1.7775   55.7737 H       1  ZINC001342629575    0.0800
     46 H46        -7.0410    3.3580   53.9797 H       1  ZINC001342629575    0.0800
     47 H47        -6.1236    2.3563   55.1560 H       1  ZINC001342629575    0.0800
     48 H48        -6.8295    1.7150   52.2399 H       1  ZINC001342629575    0.0600
     49 H49        -5.2484    1.5447   53.0609 H       1  ZINC001342629575    0.0900
     50 H50       -11.7061    1.1788   56.2933 H       1  ZINC001342629575    0.1000
     51 H51       -12.5136    0.4562   57.7053 H       1  ZINC001342629575    0.1100
     52 H52       -10.6162    2.4653   57.8264 H       1  ZINC001342629575    0.0600
     53 H53       -11.0245    1.3698   59.1687 H       1  ZINC001342629575    0.0600
     54 H54        -7.4067    1.0884   58.8578 H       1  ZINC001342629575    0.0900
     55 H55        -8.3130    2.6046   58.6386 H       1  ZINC001342629575    0.0400
     56 H56        -8.7207    1.5102   59.9819 H       1  ZINC001342629575    0.0400
     57 H57       -13.4412   -0.9369   60.5589 H       1  ZINC001342629575    0.1300
     58 H58       -15.7216   -1.8653   60.5810 H       1  ZINC001342629575    0.1200
     59 H59       -16.2576   -3.8463   59.2203 H       1  ZINC001342629575    0.1200
     60 H60       -14.5134   -4.8982   57.8368 H       1  ZINC001342629575    0.1200
     61 H61       -12.2341   -3.9669   57.8111 H       1  ZINC001342629575    0.1200
@<TRIPOS>BOND
     1     1     2    2
     2     1    33    1
     3     1    34    1
     4     2     3    1
     5     2    35    1
     6     3     4    1
     7     3    36    1
     8     3    37    1
     9     4     5    1
    10     4     6    1
    11     4    27    1
    12     6    22    1
    13     6     7    2
    14     7     8    1
    15     8     9    2
    16     9    10    1
    17     9    22    1
    18    10    14    1
    19    10    11    1
    20    11    12    1
    21    11    38    1
    22    11    39    1
    23    12    13    1
    24    12    40    1
    25    12    41    1
    26    13    14    1
    27    13    42    1
    28    13    43    1
    29    14    15    1
    30    14    16    1
    31    16    17    1
    32    16    21    1
    33    16    18    1
    34    18    19    1
    35    18    44    1
    36    18    45    1
    37    19    20    1
    38    19    46    1
    39    19    47    1
    40    20    21    1
    41    20    48    1
    42    20    49    1
    43    22    23    1
    44    23    24    1
    45    23    50    1
    46    23    51    1
    47    24    25    1
    48    24    52    1
    49    24    53    1
    50    25    26    1
    51    26    54    1
    52    26    55    1
    53    26    56    1
    54    27    32   ar
    55    27    28   ar
    56    28    29   ar
    57    28    57    1
    58    29    30   ar
    59    29    58    1
    60    30    31   ar
    61    30    59    1
    62    31    32   ar
    63    31    60    1
    64    32    61    1
@<TRIPOS>SUBSTRUCTURE
     1 ZINC001342629575        1 TEMP              0 ****  ****    0 ROOT


##########                                Name:    ZINC000655982608
##########                DOCK_Rotatable_Bonds:                   5
##########                         Heavy_Atoms:                  29
##########                    Molecular_Weight:             388.469
##########                DOCK_Rotatable_Bonds:                   5
##########                       Formal_Charge:          -0.0200006
##########                     HBond_Acceptors:                   6
##########                        HBond_Donors:                   0
##########                         Heavy_Atoms:                  29
##########                          Grid_Score:          -32.231777
##########                     Grid_vdw_energy:          -31.782547
##########                      Grid_es_energy:           -0.449230
##########           Internal_energy_repulsive:           18.719549

@<TRIPOS>MOLECULE
ZINC000655982608
 53 57 1 0 0
SMALL
USER_CHARGES


@<TRIPOS>ATOM
      1 C1         -0.8893    0.3736   47.4970 C.3     1  ZINC000655982608   -0.1900
      2 C2         -1.5722    1.6870   47.1106 C.3     1  ZINC000655982608    0.0800
      3 H3         -2.5826    1.4811   46.7574 H       1  ZINC000655982608    0.1000
      4 C4         -1.6363    2.6069   48.3315 C.3     1  ZINC000655982608   -0.0300
      5 C5         -3.0025    2.5124   48.9605 C.2     1  ZINC000655982608    0.2000
      6 N6         -3.2688    2.4413   50.2425 N.2     1  ZINC000655982608   -0.4800
      7 C7         -4.6091    2.3726   50.3306 C.2     1  ZINC000655982608    0.1700
      8 C8         -5.4157    2.2765   51.5999 C.3     1  ZINC000655982608   -0.0100
      9 H9         -4.7706    2.0770   52.4556 H       1  ZINC000655982608    0.1300
     10 C10        -6.2506    3.5586   51.8234 C.3     1  ZINC000655982608   -0.1400
     11 C11        -7.5497    3.0571   52.4147 C.2     1  ZINC000655982608    0.5200
     12 O12        -8.3639    3.7482   52.9895 O.2     1  ZINC000655982608   -0.5000
     13 N13        -7.6705    1.7340   52.2097 N.am    1  ZINC000655982608   -0.5600
     14 C14        -8.7559    0.9642   52.6419 C.ar    1  ZINC000655982608    0.1600
     15 C15        -8.5561   -0.0819   53.5333 C.ar    1  ZINC000655982608   -0.1600
     16 C16        -9.6296   -0.8401   53.9580 C.ar    1  ZINC000655982608   -0.0900
     17 C17       -10.9023   -0.5588   53.4962 C.ar    1  ZINC000655982608   -0.1400
     18 C18       -11.1046    0.4817   52.6082 C.ar    1  ZINC000655982608   -0.0900
     19 C19       -10.0362    1.2479   52.1849 C.ar    1  ZINC000655982608   -0.1600
     20 C20        -6.5169    1.2003   51.4750 C.3     1  ZINC000655982608    0.1100
     21 N21        -5.0807    2.4048   49.1202 N.2     1  ZINC000655982608   -0.3700
     22 O22        -4.1745    2.4908   48.3185 O.3     1  ZINC000655982608    0.0900
     23 N23        -0.8046    2.3426   46.0434 N.3     1  ZINC000655982608   -0.4700
     24 C24         0.5027    2.8180   46.5461 C.3     1  ZINC000655982608    0.0300
     25 C25         1.4064    2.7058   45.2968 C.3     1  ZINC000655982608   -0.0800
     26 C26         0.7238    1.6243   44.4834 C.ar    1  ZINC000655982608   -0.1400
     27 C27         1.1648    0.8617   43.4228 C.ar    1  ZINC000655982608   -0.0800
     28 C28         0.3281   -0.0801   42.8508 C.ar    1  ZINC000655982608   -0.1400
     29 C29        -0.9511   -0.2558   43.3449 C.ar    1  ZINC000655982608   -0.0900
     30 C30        -1.3980    0.5062   44.4045 C.ar    1  ZINC000655982608   -0.1400
     31 C31        -0.5624    1.4592   44.9841 C.ar    1  ZINC000655982608    0.1000
     32 H32        -1.5153   -0.1661   48.2076 H       1  ZINC000655982608    0.0700
     33 H33        -0.7434   -0.2361   46.6053 H       1  ZINC000655982608    0.0700
     34 H34         0.0773    0.5871   47.9533 H       1  ZINC000655982608    0.0700
     35 H35        -0.8809    2.3024   49.0559 H       1  ZINC000655982608    0.1200
     36 H36        -1.4492    3.6351   48.0220 H       1  ZINC000655982608    0.1100
     37 H37        -5.7458    4.2256   52.5223 H       1  ZINC000655982608    0.1200
     38 H38        -6.4332    4.0650   50.8756 H       1  ZINC000655982608    0.1200
     39 H39        -7.5622   -0.3025   53.8937 H       1  ZINC000655982608    0.1200
     40 H40        -9.4748   -1.6536   54.6511 H       1  ZINC000655982608    0.1300
     41 H41       -11.7400   -1.1533   53.8296 H       1  ZINC000655982608    0.1200
     42 H42       -12.0997    0.6985   52.2489 H       1  ZINC000655982608    0.1300
     43 H43       -10.1949    2.0604   51.4913 H       1  ZINC000655982608    0.1500
     44 H44        -6.7755    1.0459   50.4275 H       1  ZINC000655982608    0.0900
     45 H45        -6.1839    0.2645   51.9240 H       1  ZINC000655982608    0.1000
     46 H46         0.4346    3.8526   46.8823 H       1  ZINC000655982608    0.1000
     47 H47         0.8670    2.1735   47.3460 H       1  ZINC000655982608    0.0700
     48 H48         1.4254    3.6475   44.7482 H       1  ZINC000655982608    0.0900
     49 H49         2.4148    2.4003   45.5761 H       1  ZINC000655982608    0.0800
     50 H50         2.1642    0.9999   43.0378 H       1  ZINC000655982608    0.1200
     51 H51         0.6737   -0.6768   42.0195 H       1  ZINC000655982608    0.1200
     52 H52        -1.6034   -0.9922   42.8992 H       1  ZINC000655982608    0.1300
     53 H53        -2.3985    0.3645   44.7856 H       1  ZINC000655982608    0.1200
@<TRIPOS>BOND
     1     1     2    1
     2     1    32    1
     3     1    33    1
     4     1    34    1
     5     2     3    1
     6     2     4    1
     7     2    23    1
     8     4     5    1
     9     4    35    1
    10     4    36    1
    11     5    22    1
    12     5     6    2
    13     6     7    1
    14     7     8    1
    15     7    21    2
    16     8     9    1
    17     8    20    1
    18     8    10    1
    19    10    11    1
    20    10    37    1
    21    10    38    1
    22    11    12    2
    23    11    13   am
    24    13    14    1
    25    13    20    1
    26    14    19   ar
    27    14    15   ar
    28    15    16   ar
    29    15    39    1
    30    16    17   ar
    31    16    40    1
    32    17    18   ar
    33    17    41    1
    34    18    19   ar
    35    18    42    1
    36    19    43    1
    37    20    44    1
    38    20    45    1
    39    21    22    1
    40    23    31    1
    41    23    24    1
    42    24    25    1
    43    24    46    1
    44    24    47    1
    45    25    26    1
    46    25    48    1
    47    25    49    1
    48    26    31   ar
    49    26    27   ar
    50    27    28   ar
    51    27    50    1
    52    28    29   ar
    53    28    51    1
    54    29    30   ar
    55    29    52    1
    56    30    31   ar
    57    30    53    1
@<TRIPOS>SUBSTRUCTURE
     1 ZINC000655982608        1 TEMP              0 ****  ****    0 ROOT


##########                                Name:    ZINC000962730513
##########                DOCK_Rotatable_Bonds:                   6
##########                         Heavy_Atoms:                  24
##########                    Molecular_Weight:             342.465
##########                DOCK_Rotatable_Bonds:                   6
##########                       Formal_Charge:         -0.00999998
##########                     HBond_Acceptors:                   6
##########                        HBond_Donors:                   1
##########                         Heavy_Atoms:                  24
##########                          Grid_Score:          -32.218361
##########                     Grid_vdw_energy:          -32.029209
##########                      Grid_es_energy:           -0.189152
##########           Internal_energy_repulsive:           13.129903

@<TRIPOS>MOLECULE
ZINC000962730513
 46 49 1 0 0
SMALL
USER_CHARGES


@<TRIPOS>ATOM
      1 C1         -8.1415    1.0958   58.8353 C.3     1  ZINC000962730513   -0.1400
      2 C2         -7.7873    1.2530   57.3551 C.3     1  ZINC000962730513   -0.0800
      3 C3         -8.5997    0.2815   56.5382 C.2     1  ZINC000962730513   -0.0100
      4 C4         -8.3865    0.0570   55.2072 C.2     1  ZINC000962730513   -0.2800
      5 C5         -7.3604    0.7093   54.3885 C.2     1  ZINC000962730513    0.6000
      6 O6         -6.5111    1.4032   54.9162 O.2     1  ZINC000962730513   -0.5200
      7 N7         -7.3574    0.5407   53.0514 N.am    1  ZINC000962730513   -0.7000
      8 C8         -6.3330    1.1941   52.2329 C.3     1  ZINC000962730513    0.1200
      9 H9         -5.6349    1.8317   52.7753 H       1  ZINC000962730513    0.1400
     10 C10        -6.7288    1.6247   50.8192 C.3     1  ZINC000962730513   -0.1700
     11 H11        -7.7596    1.4990   50.4881 H       1  ZINC000962730513    0.1200
     12 C12        -5.8831    2.7149   50.1269 C.3     1  ZINC000962730513    0.0700
     13 N13        -4.7801    1.9703   49.4666 N.3     1  ZINC000962730513   -0.5000
     14 C14        -3.6387    2.8535   49.1924 C.3     1  ZINC000962730513    0.1100
     15 C15        -2.6988    2.1754   48.2292 C.ar    1  ZINC000962730513    0.3200
     16 N16        -2.9979    2.1585   46.9458 N.ar    1  ZINC000962730513   -0.5100
     17 C17        -2.1966    1.5724   46.0707 C.ar    1  ZINC000962730513    0.1500
     18 C18        -1.0311    0.9722   46.5203 C.ar    1  ZINC000962730513   -0.1900
     19 C19        -0.0909    0.2945   45.5571 C.3     1  ZINC000962730513   -0.1100
     20 C20        -0.7509    1.0106   47.8772 C.ar    1  ZINC000962730513    0.1500
     21 N21        -1.5971    1.6196   48.6921 N.ar    1  ZINC000962730513   -0.5000
     22 C22        -4.4137    0.9158   50.4469 C.3     1  ZINC000962730513    0.0700
     23 C23        -5.7917    0.4193   51.0298 C.3     1  ZINC000962730513   -0.1700
     24 H24        -6.0835   -0.6114   50.8281 H       1  ZINC000962730513    0.1300
     25 S25        -9.5398   -1.1401   54.6342 S.3     1  ZINC000962730513    0.1900
     26 C26       -10.2390   -1.2771   56.1845 C.2     1  ZINC000962730513   -0.2200
     27 C27        -9.6252   -0.4713   57.0592 C.2     1  ZINC000962730513   -0.1500
     28 H28        -9.2027    1.2994   58.9785 H       1  ZINC000962730513    0.0600
     29 H29        -7.9203    0.0778   59.1557 H       1  ZINC000962730513    0.0500
     30 H30        -7.5538    1.7985   59.4261 H       1  ZINC000962730513    0.0600
     31 H31        -8.0085    2.2711   57.0347 H       1  ZINC000962730513    0.1000
     32 H32        -6.7261    1.0495   57.2119 H       1  ZINC000962730513    0.0700
     33 H33        -8.0337   -0.0132   52.6310 H       1  ZINC000962730513    0.4000
     34 H34        -6.4803    3.2458   49.3855 H       1  ZINC000962730513    0.0900
     35 H35        -5.4836    3.4114   50.8640 H       1  ZINC000962730513    0.0500
     36 H36        -3.9973    3.7854   48.7550 H       1  ZINC000962730513    0.1000
     37 H37        -3.1132    3.0676   50.1230 H       1  ZINC000962730513    0.0700
     38 H38        -2.4476    1.5619   45.0203 H       1  ZINC000962730513    0.1700
     39 H39         0.6415    1.0163   45.1958 H       1  ZINC000962730513    0.0800
     40 H40         0.4231   -0.5217   46.0648 H       1  ZINC000962730513    0.0700
     41 H41        -0.6574   -0.1013   44.7142 H       1  ZINC000962730513    0.0700
     42 H42         0.1478    0.5529   48.2636 H       1  ZINC000962730513    0.1700
     43 H43        -3.9047    0.0920   49.9465 H       1  ZINC000962730513    0.0800
     44 H44        -3.7843    1.3307   51.2341 H       1  ZINC000962730513    0.0600
     45 H45       -11.0639   -1.9299   56.4285 H       1  ZINC000962730513    0.1700
     46 H46        -9.9194   -0.4109   58.0965 H       1  ZINC000962730513    0.1500
@<TRIPOS>BOND
     1     1     2    1
     2     1    28    1
     3     1    29    1
     4     1    30    1
     5     2     3    1
     6     2    31    1
     7     2    32    1
     8     3    27    1
     9     3     4    2
    10     4     5    1
    11     4    25    1
    12     5     6    2
    13     5     7   am
    14     7     8    1
    15     7    33    1
    16     8     9    1
    17     8    23    1
    18     8    10    1
    19    10    11    1
    20    10    23    1
    21    10    12    1
    22    12    13    1
    23    12    34    1
    24    12    35    1
    25    13    14    1
    26    13    22    1
    27    14    15    1
    28    14    36    1
    29    14    37    1
    30    15    21   ar
    31    15    16   ar
    32    16    17   ar
    33    17    18   ar
    34    17    38    1
    35    18    19    1
    36    18    20   ar
    37    19    39    1
    38    19    40    1
    39    19    41    1
    40    20    21   ar
    41    20    42    1
    42    22    23    1
    43    22    43    1
    44    22    44    1
    45    23    24    1
    46    25    26    1
    47    26    27    2
    48    26    45    1
    49    27    46    1
@<TRIPOS>SUBSTRUCTURE
     1 ZINC000962730513        1 TEMP              0 ****  ****    0 ROOT


##########                                Name:    ZINC001327099466
##########                DOCK_Rotatable_Bonds:                   7
##########                         Heavy_Atoms:                  27
##########                    Molecular_Weight:             374.483
##########                DOCK_Rotatable_Bonds:                   7
##########                       Formal_Charge:           0.0199998
##########                     HBond_Acceptors:                   7
##########                        HBond_Donors:                   1
##########                         Heavy_Atoms:                  27
##########                          Grid_Score:          -32.212296
##########                     Grid_vdw_energy:          -31.223207
##########                      Grid_es_energy:           -0.989090
##########           Internal_energy_repulsive:           18.060148

@<TRIPOS>MOLECULE
ZINC001327099466
 57 60 1 0 0
SMALL
USER_CHARGES


@<TRIPOS>ATOM
      1 O1         -6.0919    0.2470   53.2647 O.2     1  ZINC001327099466   -0.4800
      2 C2         -7.2779    0.4594   53.1179 C.2     1  ZINC001327099466    0.5300
      3 N3         -7.7179    1.0889   52.0103 N.am    1  ZINC001327099466   -0.6000
      4 C4         -6.8067    1.5027   51.0324 C.2     1  ZINC001327099466    0.2900
      5 N5         -5.5057    1.3314   51.0685 N.2     1  ZINC001327099466   -0.3100
      6 N6         -4.9597    1.8862   49.9040 N.pl3   1  ZINC001327099466   -0.3500
      7 C7         -3.5392    1.9097   49.5462 C.3     1  ZINC001327099466    0.1700
      8 C8         -2.9239    3.2389   49.9884 C.3     1  ZINC001327099466   -0.1300
      9 C9         -1.4404    3.2634   49.6147 C.3     1  ZINC001327099466   -0.1200
     10 C10        -0.7191    2.1096   50.3143 C.3     1  ZINC001327099466   -0.1300
     11 C11        -1.3345    0.7805   49.8722 C.3     1  ZINC001327099466   -0.1200
     12 C12        -2.8179    0.7560   50.2459 C.3     1  ZINC001327099466   -0.1300
     13 C13        -5.9711    2.3948   49.1688 C.2     1  ZINC001327099466    0.0700
     14 C14        -7.1246    2.1687   49.8372 C.2     1  ZINC001327099466   -0.2700
     15 C15        -8.2505    0.0177   54.1617 C.2     1  ZINC001327099466    0.5100
     16 O16        -8.7223   -1.0996   54.1177 O.2     1  ZINC001327099466   -0.5100
     17 N17        -8.6044    0.8600   55.1526 N.am    1  ZINC001327099466   -0.5700
     18 C18        -8.0418    2.2157   55.2192 C.3     1  ZINC001327099466    0.0400
     19 C19        -7.4291    2.4277   56.6072 C.3     1  ZINC001327099466   -0.1300
     20 C20        -8.4832    2.1312   57.6764 C.3     1  ZINC001327099466   -0.1200
     21 C21        -8.9304    0.6720   57.5636 C.3     1  ZINC001327099466    0.0800
     22 H22        -8.0677    0.0168   57.6841 H       1  ZINC001327099466    0.0700
     23 O23        -9.8914    0.3875   58.5822 O.3     1  ZINC001327099466   -0.3500
     24 C24        -9.9195   -0.9823   58.9885 C.3     1  ZINC001327099466    0.0600
     25 C25        -8.9049   -1.3177   60.0944 C.3     1  ZINC001327099466   -0.1600
     26 C26       -10.0007   -0.9400   61.1052 C.3     1  ZINC001327099466   -0.1400
     27 C27       -11.0220   -1.2984   60.0129 C.3     1  ZINC001327099466   -0.1400
     28 C28        -9.5644    0.4420   56.1833 C.3     1  ZINC001327099466    0.0900
     29 H29        -8.6660    1.2552   51.8912 H       1  ZINC001327099466    0.4300
     30 H30        -3.4346    1.8022   48.4666 H       1  ZINC001327099466    0.1000
     31 H31        -3.4377    4.0608   49.4899 H       1  ZINC001327099466    0.0700
     32 H32        -3.0284    3.3463   51.0680 H       1  ZINC001327099466    0.0700
     33 H33        -1.3359    3.1559   48.5351 H       1  ZINC001327099466    0.0700
     34 H34        -1.0020    4.2103   49.9298 H       1  ZINC001327099466    0.0700
     35 H35         0.3377    2.1271   50.0482 H       1  ZINC001327099466    0.0700
     36 H36        -0.8237    2.2171   51.3940 H       1  ZINC001327099466    0.0700
     37 H37        -1.2299    0.6730   48.7925 H       1  ZINC001327099466    0.0700
     38 H38        -0.8206   -0.0415   50.3706 H       1  ZINC001327099466    0.0700
     39 H39        -2.9226    0.8634   51.3255 H       1  ZINC001327099466    0.0700
     40 H40        -3.2564   -0.1910   49.9309 H       1  ZINC001327099466    0.0700
     41 H41        -5.8762    2.8908   48.2142 H       1  ZINC001327099466    0.1800
     42 H42        -8.1142    2.4546   49.5125 H       1  ZINC001327099466    0.1700
     43 H43        -7.2701    2.3290   54.4580 H       1  ZINC001327099466    0.1600
     44 H44        -8.8322    2.9478   55.0531 H       1  ZINC001327099466    0.0700
     45 H45        -6.5806    1.7559   56.7367 H       1  ZINC001327099466    0.0700
     46 H46        -7.0941    3.4605   56.7031 H       1  ZINC001327099466    0.0900
     47 H47        -8.0570    2.3051   58.6645 H       1  ZINC001327099466    0.0800
     48 H48        -9.3421    2.7865   57.5312 H       1  ZINC001327099466    0.0800
     49 H49        -9.8943   -1.6741   58.1465 H       1  ZINC001327099466    0.0700
     50 H50        -8.6259   -2.3708   60.1261 H       1  ZINC001327099466    0.0900
     51 H51        -8.0438   -0.6498   60.1141 H       1  ZINC001327099466    0.0700
     52 H52       -10.0401   -1.5985   61.9728 H       1  ZINC001327099466    0.0700
     53 H53       -10.0014    0.1164   61.3740 H       1  ZINC001327099466    0.0800
     54 H54       -11.8699   -0.6150   59.9667 H       1  ZINC001327099466    0.0800
     55 H55       -11.3217   -2.3463   60.0223 H       1  ZINC001327099466    0.0900
     56 H56       -10.4785    1.0297   56.0986 H       1  ZINC001327099466    0.0900
     57 H57        -9.7949   -0.6160   56.0587 H       1  ZINC001327099466    0.1000
@<TRIPOS>BOND
     1     1     2    2
     2     2     3   am
     3     2    15    1
     4     3     4    1
     5     3    29    1
     6     4    14    1
     7     4     5    2
     8     5     6    1
     9     6     7    1
    10     6    13    1
    11     7    12    1
    12     7     8    1
    13     7    30    1
    14     8     9    1
    15     8    31    1
    16     8    32    1
    17     9    10    1
    18     9    33    1
    19     9    34    1
    20    10    11    1
    21    10    35    1
    22    10    36    1
    23    11    12    1
    24    11    37    1
    25    11    38    1
    26    12    39    1
    27    12    40    1
    28    13    14    2
    29    13    41    1
    30    14    42    1
    31    15    16    2
    32    15    17   am
    33    17    28    1
    34    17    18    1
    35    18    19    1
    36    18    43    1
    37    18    44    1
    38    19    20    1
    39    19    45    1
    40    19    46    1
    41    20    21    1
    42    20    47    1
    43    20    48    1
    44    21    22    1
    45    21    23    1
    46    21    28    1
    47    23    24    1
    48    24    27    1
    49    24    25    1
    50    24    49    1
    51    25    26    1
    52    25    50    1
    53    25    51    1
    54    26    27    1
    55    26    52    1
    56    26    53    1
    57    27    54    1
    58    27    55    1
    59    28    56    1
    60    28    57    1
@<TRIPOS>SUBSTRUCTURE
     1 ZINC001327099466        1 TEMP              0 ****  ****    0 ROOT


##########                                Name:    ZINC000194290865
##########                DOCK_Rotatable_Bonds:                   7
##########                         Heavy_Atoms:                  28
##########                    Molecular_Weight:             387.479
##########                DOCK_Rotatable_Bonds:                   7
##########                       Formal_Charge:          -0.0400003
##########                     HBond_Acceptors:                   7
##########                        HBond_Donors:                   0
##########                         Heavy_Atoms:                  28
##########                          Grid_Score:          -32.192776
##########                     Grid_vdw_energy:          -31.437431
##########                      Grid_es_energy:           -0.755345
##########           Internal_energy_repulsive:           36.540131

@<TRIPOS>MOLECULE
ZINC000194290865
 57 59 1 0 0
SMALL
USER_CHARGES


@<TRIPOS>ATOM
      1 C1        -13.4795    0.3106   49.5765 C.3     1  ZINC000194290865   -0.1500
      2 C2        -13.6748    0.4565   51.0869 C.3     1  ZINC000194290865    0.0600
      3 O3        -12.4073    0.2416   51.7618 O.3     1  ZINC000194290865   -0.3600
      4 C4        -12.3955    0.3849   53.0963 C.2     1  ZINC000194290865    0.4700
      5 O5        -13.3580    0.8458   53.6630 O.2     1  ZINC000194290865   -0.4900
      6 C6        -11.1818   -0.0289   53.8880 C.3     1  ZINC000194290865   -0.0600
      7 C7         -9.9204    0.1009   53.0320 C.3     1  ZINC000194290865   -0.0700
      8 C8         -9.7056    1.5692   52.6594 C.3     1  ZINC000194290865   -0.1700
      9 C9         -8.7129   -0.4065   53.8228 C.3     1  ZINC000194290865   -0.1600
     10 C10       -11.0563    0.8305   55.1672 C.3     1  ZINC000194290865   -0.1200
     11 C11       -11.7049   -0.0677   56.2503 C.3     1  ZINC000194290865    0.0900
     12 N12       -11.2725   -1.4309   55.8648 N.am    1  ZINC000194290865   -0.6100
     13 C13       -10.8958   -2.4270   56.6908 C.2     1  ZINC000194290865    0.5800
     14 O14       -10.5631   -3.5026   56.2334 O.2     1  ZINC000194290865   -0.5000
     15 C15       -10.8874   -2.2109   58.1550 C.ar    1  ZINC000194290865    0.0100
     16 C16       -11.9749   -2.6102   58.9555 C.ar    1  ZINC000194290865   -0.2200
     17 C17       -11.9264   -2.3863   60.3423 C.ar    1  ZINC000194290865    0.3000
     18 N18       -10.8665   -1.8056   60.8834 N.ar    1  ZINC000194290865   -0.4700
     19 C19        -9.8359   -1.4220   60.1606 C.ar    1  ZINC000194290865    0.2100
     20 C20        -8.6626   -0.7676   60.8436 C.3     1  ZINC000194290865   -0.1100
     21 C21        -9.7996   -1.6102   58.7884 C.ar    1  ZINC000194290865   -0.1800
     22 O22       -13.0806   -2.8584   60.8551 O.3     1  ZINC000194290865   -0.0800
     23 N23       -13.8766   -3.3863   59.8135 N.2     1  ZINC000194290865   -0.2600
     24 C24       -13.2571   -3.2572   58.6800 C.2     1  ZINC000194290865    0.1600
     25 C25       -13.7655   -3.6930   57.3299 C.3     1  ZINC000194290865   -0.0400
     26 C26       -14.0499   -5.1961   57.3529 C.3     1  ZINC000194290865   -0.1500
     27 C27       -15.0533   -2.9352   57.0009 C.3     1  ZINC000194290865   -0.1400
     28 C28       -11.3397   -1.4755   54.3922 C.3     1  ZINC000194290865    0.1200
     29 H29       -12.7545    1.0475   49.2310 H       1  ZINC000194290865    0.0700
     30 H30       -13.1139   -0.6915   49.3525 H       1  ZINC000194290865    0.0700
     31 H31       -14.4311    0.4718   49.0698 H       1  ZINC000194290865    0.0800
     32 H32       -14.0404    1.4586   51.3108 H       1  ZINC000194290865    0.0700
     33 H33       -14.3998   -0.2804   51.4323 H       1  ZINC000194290865    0.0700
     34 H34       -10.0349   -0.4914   52.1241 H       1  ZINC000194290865    0.0900
     35 H35       -10.5658    1.9306   52.0960 H       1  ZINC000194290865    0.0500
     36 H36        -9.5911    2.1614   53.5674 H       1  ZINC000194290865    0.0800
     37 H37        -8.8069    1.6617   52.0496 H       1  ZINC000194290865    0.0600
     38 H38        -8.8658   -1.4525   54.0883 H       1  ZINC000194290865    0.0500
     39 H39        -7.8142   -0.3141   53.2131 H       1  ZINC000194290865    0.0600
     40 H40        -8.5984    0.1857   54.7308 H       1  ZINC000194290865    0.0800
     41 H41       -10.0094    1.0230   55.4017 H       1  ZINC000194290865    0.0900
     42 H42       -11.6071    1.7649   55.0600 H       1  ZINC000194290865    0.0900
     43 H43       -11.3278    0.1900   57.2400 H       1  ZINC000194290865    0.0900
     44 H44       -12.7914    0.0147   56.2183 H       1  ZINC000194290865    0.0900
     45 H45        -7.9436   -1.5308   61.1413 H       1  ZINC000194290865    0.0900
     46 H46        -8.1864   -0.0679   60.1568 H       1  ZINC000194290865    0.0900
     47 H47        -9.0094   -0.2309   61.7266 H       1  ZINC000194290865    0.0900
     48 H48        -8.9431   -1.2876   58.2150 H       1  ZINC000194290865    0.1600
     49 H49       -13.0130   -3.4772   56.5714 H       1  ZINC000194290865    0.1100
     50 H50       -14.8024   -5.4119   58.1115 H       1  ZINC000194290865    0.0700
     51 H51       -14.4177   -5.5114   56.3765 H       1  ZINC000194290865    0.0700
     52 H52       -13.1325   -5.7360   57.5873 H       1  ZINC000194290865    0.0600
     53 H53       -14.8505   -1.8643   56.9845 H       1  ZINC000194290865    0.0600
     54 H54       -15.4209   -3.2504   56.0244 H       1  ZINC000194290865    0.0700
     55 H55       -15.8056   -3.1509   57.7594 H       1  ZINC000194290865    0.0600
     56 H56       -12.3032   -1.8756   54.0764 H       1  ZINC000194290865    0.0800
     57 H57       -10.5318   -2.0948   54.0024 H       1  ZINC000194290865    0.1000
@<TRIPOS>BOND
     1     1     2    1
     2     1    29    1
     3     1    30    1
     4     1    31    1
     5     2     3    1
     6     2    32    1
     7     2    33    1
     8     3     4    1
     9     4     5    2
    10     4     6    1
    11     6    28    1
    12     6     7    1
    13     6    10    1
    14     7     8    1
    15     7     9    1
    16     7    34    1
    17     8    35    1
    18     8    36    1
    19     8    37    1
    20     9    38    1
    21     9    39    1
    22     9    40    1
    23    10    11    1
    24    10    41    1
    25    10    42    1
    26    11    12    1
    27    11    43    1
    28    11    44    1
    29    12    13   am
    30    12    28    1
    31    13    14    2
    32    13    15    1
    33    15    21   ar
    34    15    16   ar
    35    16    24    1
    36    16    17   ar
    37    17    18   ar
    38    17    22    1
    39    18    19   ar
    40    19    20    1
    41    19    21   ar
    42    20    45    1
    43    20    46    1
    44    20    47    1
    45    21    48    1
    46    22    23    1
    47    23    24    2
    48    24    25    1
    49    25    26    1
    50    25    27    1
    51    25    49    1
    52    26    50    1
    53    26    51    1
    54    26    52    1
    55    27    53    1
    56    27    54    1
    57    27    55    1
    58    28    56    1
    59    28    57    1
@<TRIPOS>SUBSTRUCTURE
     1 ZINC000194290865        1 TEMP              0 ****  ****    0 ROOT


##########                                Name:    ZINC000001174632
##########                DOCK_Rotatable_Bonds:                   6
##########                         Heavy_Atoms:                  29
##########                    Molecular_Weight:             385.419
##########                DOCK_Rotatable_Bonds:                   6
##########                       Formal_Charge:           0.0400005
##########                     HBond_Acceptors:                   5
##########                        HBond_Donors:                   1
##########                         Heavy_Atoms:                  29
##########                          Grid_Score:          -32.188446
##########                     Grid_vdw_energy:          -31.296072
##########                      Grid_es_energy:           -0.892375
##########           Internal_energy_repulsive:           14.753211

@<TRIPOS>MOLECULE
ZINC000001174632
 48 51 1 0 0
SMALL
USER_CHARGES


@<TRIPOS>ATOM
      1 C1        -14.1194   -2.9249   60.9186 C.3     1  ZINC000001174632    0.0400
      2 O2        -14.4595   -1.8949   59.9535 O.3     1  ZINC000001174632   -0.3500
      3 C3        -14.1039   -2.1154   58.6724 C.2     1  ZINC000001174632    0.5200
      4 O4        -14.5853   -1.4410   57.7836 O.2     1  ZINC000001174632   -0.5200
      5 C5        -13.1312   -3.1742   58.3496 C.ar    1  ZINC000001174632   -0.2000
      6 C6        -13.5583   -4.3629   57.7529 C.ar    1  ZINC000001174632   -0.0200
      7 C7        -12.6432   -5.3491   57.4530 C.ar    1  ZINC000001174632   -0.1800
      8 C8        -11.2997   -5.1688   57.7402 C.ar    1  ZINC000001174632   -0.0300
      9 C9        -10.8617   -4.0004   58.3300 C.ar    1  ZINC000001174632   -0.1900
     10 C10       -11.7678   -2.9922   58.6346 C.ar    1  ZINC000001174632    0.2600
     11 N11       -11.3296   -1.8155   59.2277 N.pl3   1  ZINC000001174632   -0.6500
     12 C12       -10.3790   -1.0472   58.6063 C.2     1  ZINC000001174632    0.2300
     13 C13        -9.4928   -0.2001   59.2435 C.2     1  ZINC000001174632   -0.1800
     14 C14        -9.4104    0.0291   60.7031 C.ar    1  ZINC000001174632   -0.0600
     15 C15       -10.3719    0.8119   61.3438 C.ar    1  ZINC000001174632   -0.0600
     16 C16       -10.2916    1.0231   62.7043 C.ar    1  ZINC000001174632   -0.1500
     17 C17        -9.2560    0.4586   63.4363 C.ar    1  ZINC000001174632    0.1400
     18 O18        -9.1803    0.6692   64.7772 O.3     1  ZINC000001174632   -0.3200
     19 C19        -8.5981   -0.3709   65.5654 C.3     1  ZINC000001174632    0.0300
     20 C20        -8.2976   -0.3207   62.8028 C.ar    1  ZINC000001174632   -0.2100
     21 C21        -8.3742   -0.5417   61.4437 C.ar    1  ZINC000001174632   -0.0500
     22 C22        -8.6461    0.4335   58.2246 C.2     1  ZINC000001174632    0.4500
     23 O23        -7.7554    1.2366   58.4221 O.2     1  ZINC000001174632   -0.4100
     24 C24        -9.0855   -0.0948   56.9037 C.ar    1  ZINC000001174632   -0.1600
     25 C25        -8.6591    0.1406   55.6102 C.ar    1  ZINC000001174632   -0.0500
     26 C26        -9.2743   -0.5137   54.5474 C.ar    1  ZINC000001174632   -0.1100
     27 C27       -10.3075   -1.3954   54.7799 C.ar    1  ZINC000001174632   -0.0900
     28 C28       -10.7445   -1.6398   56.0765 C.ar    1  ZINC000001174632   -0.0800
     29 C29       -10.1352   -0.9986   57.1450 C.ar    1  ZINC000001174632   -0.0600
     30 H30       -13.0385   -3.0652   60.9347 H       1  ZINC000001174632    0.0700
     31 H31       -14.4612   -2.6226   61.9085 H       1  ZINC000001174632    0.1100
     32 H32       -14.6030   -3.8605   60.6373 H       1  ZINC000001174632    0.0700
     33 H33       -14.6042   -4.5091   57.5271 H       1  ZINC000001174632    0.1400
     34 H34       -12.9753   -6.2676   56.9920 H       1  ZINC000001174632    0.1300
     35 H35       -10.5908   -5.9477   57.5013 H       1  ZINC000001174632    0.1300
     36 H36        -9.8129   -3.8680   58.5513 H       1  ZINC000001174632    0.1300
     37 H37       -11.6961   -1.5371   60.0815 H       1  ZINC000001174632    0.4300
     38 H38       -11.1776    1.2519   60.7749 H       1  ZINC000001174632    0.1300
     39 H39       -11.0352    1.6287   63.2008 H       1  ZINC000001174632    0.1300
     40 H40        -9.1777   -1.2860   65.4449 H       1  ZINC000001174632    0.0600
     41 H41        -7.5729   -0.5444   65.2379 H       1  ZINC000001174632    0.0600
     42 H42        -8.5992   -0.0756   66.6147 H       1  ZINC000001174632    0.1000
     43 H43        -7.4932   -0.7577   63.3758 H       1  ZINC000001174632    0.1300
     44 H44        -7.6285   -1.1485   60.9516 H       1  ZINC000001174632    0.1300
     45 H45        -7.8501    0.8315   55.4246 H       1  ZINC000001174632    0.1400
     46 H46        -8.9411   -0.3298   53.5366 H       1  ZINC000001174632    0.1400
     47 H47       -10.7806   -1.8990   53.9500 H       1  ZINC000001174632    0.1400
     48 H48       -11.5547   -2.3319   56.2523 H       1  ZINC000001174632    0.1300
@<TRIPOS>BOND
     1     1     2    1
     2     1    30    1
     3     1    31    1
     4     1    32    1
     5     2     3    1
     6     3     4    2
     7     3     5    1
     8     5    10   ar
     9     5     6   ar
    10     6     7   ar
    11     6    33    1
    12     7     8   ar
    13     7    34    1
    14     8     9   ar
    15     8    35    1
    16     9    10   ar
    17     9    36    1
    18    10    11    1
    19    11    12    1
    20    11    37    1
    21    12    29    1
    22    12    13    2
    23    13    14    1
    24    13    22    1
    25    14    21   ar
    26    14    15   ar
    27    15    16   ar
    28    15    38    1
    29    16    17   ar
    30    16    39    1
    31    17    18    1
    32    17    20   ar
    33    18    19    1
    34    19    40    1
    35    19    41    1
    36    19    42    1
    37    20    21   ar
    38    20    43    1
    39    21    44    1
    40    22    23    2
    41    22    24    1
    42    24    29   ar
    43    24    25   ar
    44    25    26   ar
    45    25    45    1
    46    26    27   ar
    47    26    46    1
    48    27    28   ar
    49    27    47    1
    50    28    29   ar
    51    28    48    1
@<TRIPOS>SUBSTRUCTURE
     1 ZINC000001174632        1 TEMP              0 ****  ****    0 ROOT


##########                                Name:    ZINC000956479608
##########                DOCK_Rotatable_Bonds:                   5
##########                         Heavy_Atoms:                  25
##########                    Molecular_Weight:             345.442
##########                DOCK_Rotatable_Bonds:                   5
##########                       Formal_Charge:          -0.0100001
##########                     HBond_Acceptors:                   6
##########                        HBond_Donors:                   1
##########                         Heavy_Atoms:                  25
##########                          Grid_Score:          -32.185696
##########                     Grid_vdw_energy:          -30.404707
##########                      Grid_es_energy:           -1.780987
##########           Internal_energy_repulsive:           36.485981

@<TRIPOS>MOLECULE
ZINC000956479608
 52 55 1 0 0
SMALL
USER_CHARGES


@<TRIPOS>ATOM
      1 C1         -1.4066   -0.9050   46.2511 C.3     1  ZINC000956479608   -0.0900
      2 C2         -0.5991    0.0148   45.3719 C.2     1  ZINC000956479608   -0.1100
      3 C3          0.0289    1.1793   45.7207 C.2     1  ZINC000956479608   -0.1000
      4 C4          0.0577    1.8056   47.0558 C.2     1  ZINC000956479608    0.6100
      5 O5          0.7023    2.8203   47.2376 O.2     1  ZINC000956479608   -0.5000
      6 N6         -0.6306    1.2530   48.0743 N.am    1  ZINC000956479608   -0.7100
      7 C7         -0.6007    1.8740   49.4009 C.3     1  ZINC000956479608    0.1800
      8 C8          0.8409    1.9154   49.9119 C.3     1  ZINC000956479608   -0.1700
      9 C9         -1.1498    3.2996   49.3089 C.3     1  ZINC000956479608   -0.1500
     10 C10        -2.5810    3.2571   48.7645 C.3     1  ZINC000956479608    0.1100
     11 N11        -3.3803    2.3556   49.6055 N.am    1  ZINC000956479608   -0.6100
     12 C12        -4.5365    2.7754   50.1564 C.2     1  ZINC000956479608    0.5500
     13 O13        -4.9269    3.9065   49.9586 O.2     1  ZINC000956479608   -0.5400
     14 C14        -5.3442    1.8394   51.0181 C.3     1  ZINC000956479608   -0.1900
     15 H15        -4.8168    1.4118   51.8707 H       1  ZINC000956479608    0.1200
     16 C16        -6.8275    2.1410   51.1867 C.3     1  ZINC000956479608   -0.1100
     17 H17        -7.1997    3.0150   50.6522 H       1  ZINC000956479608    0.1000
     18 C18        -7.5062    1.8781   52.5220 C.3     1  ZINC000956479608   -0.0900
     19 C19        -7.1824    0.4692   53.0192 C.3     1  ZINC000956479608   -0.1200
     20 C20        -7.5702   -0.5353   51.9279 C.3     1  ZINC000956479608   -0.1200
     21 C21        -6.5332   -0.4614   50.8070 C.3     1  ZINC000956479608   -0.0900
     22 C22        -6.3973    0.9635   50.3219 C.3     1  ZINC000956479608   -0.1100
     23 H23        -6.5094    1.1039   49.2469 H       1  ZINC000956479608    0.1100
     24 C24        -2.8955    0.9876   49.8341 C.3     1  ZINC000956479608    0.1000
     25 C25        -1.4607    1.0555   50.3666 C.3     1  ZINC000956479608   -0.1400
     26 O26         0.6157    1.6377   44.5989 O.3     1  ZINC000956479608    0.1200
     27 N27         0.4128    0.9024   43.6611 N.2     1  ZINC000956479608   -0.3400
     28 C28        -0.3087   -0.1272   43.9967 C.2     1  ZINC000956479608   -0.0100
     29 H29        -0.7492   -1.6515   46.6968 H       1  ZINC000956479608    0.0800
     30 H30        -1.8858   -0.3254   47.0401 H       1  ZINC000956479608    0.0900
     31 H31        -2.1689   -1.4034   45.6522 H       1  ZINC000956479608    0.0800
     32 H32        -1.1459    0.4441   47.9291 H       1  ZINC000956479608    0.4100
     33 H33         1.4537    2.4978   49.2239 H       1  ZINC000956479608    0.0800
     34 H34         0.8634    2.3774   50.8988 H       1  ZINC000956479608    0.0700
     35 H35         1.2326    0.9002   49.9769 H       1  ZINC000956479608    0.0600
     36 H36        -1.1508    3.7536   50.2999 H       1  ZINC000956479608    0.0800
     37 H37        -0.5231    3.8884   48.6392 H       1  ZINC000956479608    0.1000
     38 H38        -3.0115    4.2581   48.7900 H       1  ZINC000956479608    0.0900
     39 H39        -2.5711    2.8874   47.7392 H       1  ZINC000956479608    0.0600
     40 H40        -7.1559    2.6067   53.2531 H       1  ZINC000956479608    0.0700
     41 H41        -8.5849    1.9786   52.4032 H       1  ZINC000956479608    0.0700
     42 H42        -6.1153    0.3904   53.2265 H       1  ZINC000956479608    0.0600
     43 H43        -7.7503    0.2616   53.9261 H       1  ZINC000956479608    0.0700
     44 H44        -7.5862   -1.5418   52.3460 H       1  ZINC000956479608    0.0700
     45 H45        -8.5547   -0.2845   51.5329 H       1  ZINC000956479608    0.0700
     46 H46        -5.5697   -0.8052   51.1831 H       1  ZINC000956479608    0.0700
     47 H47        -6.8463   -1.1019   49.9825 H       1  ZINC000956479608    0.0700
     48 H48        -3.5335    0.4913   50.5653 H       1  ZINC000956479608    0.0900
     49 H49        -2.9112    0.4328   48.8960 H       1  ZINC000956479608    0.0700
     50 H50        -1.0553    0.0472   50.4495 H       1  ZINC000956479608    0.0900
     51 H51        -1.4588    1.5307   51.3476 H       1  ZINC000956479608    0.0900
     52 H52        -0.6297   -0.9293   43.3487 H       1  ZINC000956479608    0.2000
@<TRIPOS>BOND
     1     1     2    1
     2     1    29    1
     3     1    30    1
     4     1    31    1
     5     2    28    1
     6     2     3    2
     7     3     4    1
     8     3    26    1
     9     4     5    2
    10     4     6   am
    11     6     7    1
    12     6    32    1
    13     7    25    1
    14     7     8    1
    15     7     9    1
    16     8    33    1
    17     8    34    1
    18     8    35    1
    19     9    10    1
    20     9    36    1
    21     9    37    1
    22    10    11    1
    23    10    38    1
    24    10    39    1
    25    11    12   am
    26    11    24    1
    27    12    13    2
    28    12    14    1
    29    14    15    1
    30    14    22    1
    31    14    16    1
    32    16    17    1
    33    16    22    1
    34    16    18    1
    35    18    19    1
    36    18    40    1
    37    18    41    1
    38    19    20    1
    39    19    42    1
    40    19    43    1
    41    20    21    1
    42    20    44    1
    43    20    45    1
    44    21    22    1
    45    21    46    1
    46    21    47    1
    47    22    23    1
    48    24    25    1
    49    24    48    1
    50    24    49    1
    51    25    50    1
    52    25    51    1
    53    26    27    1
    54    27    28    2
    55    28    52    1
@<TRIPOS>SUBSTRUCTURE
     1 ZINC000956479608        1 TEMP              0 ****  ****    0 ROOT


##########                                Name:    ZINC001109404798
##########                DOCK_Rotatable_Bonds:                   7
##########                         Heavy_Atoms:                  25
##########                    Molecular_Weight:              360.48
##########                DOCK_Rotatable_Bonds:                   7
##########                       Formal_Charge:           0.0100002
##########                     HBond_Acceptors:                   7
##########                        HBond_Donors:                   1
##########                         Heavy_Atoms:                  25
##########                          Grid_Score:          -32.184959
##########                     Grid_vdw_energy:          -32.531891
##########                      Grid_es_energy:            0.346932
##########           Internal_energy_repulsive:           27.108454

@<TRIPOS>MOLECULE
ZINC001109404798
 49 52 1 0 0
SMALL
USER_CHARGES


@<TRIPOS>ATOM
      1 C1         -9.0013    0.8329   56.7745 C.3     1  ZINC001109404798   -0.0600
      2 C2         -8.9795    0.9377   55.2713 C.2     1  ZINC001109404798    0.1700
      3 N3         -9.8826    1.5019   54.5265 N.2     1  ZINC001109404798   -0.3900
      4 O4         -9.5729    1.4204   53.3566 O.3     1  ZINC001109404798    0.1000
      5 C5         -8.4074    0.7768   53.2404 C.2     1  ZINC001109404798    0.1900
      6 C6         -7.6765    0.4680   51.9592 C.3     1  ZINC001109404798    0.1600
      7 H7         -8.1652    0.9790   51.1297 H       1  ZINC001109404798    0.1000
      8 C8         -7.6973   -1.0418   51.7114 C.3     1  ZINC001109404798   -0.1500
      9 N9         -6.2853    0.9274   52.0661 N.3     1  ZINC001109404798   -0.4800
     10 C10        -6.2258    2.3928   52.4108 C.3     1  ZINC001109404798    0.0400
     11 H11        -6.6458    2.6717   53.3772 H       1  ZINC001109404798    0.1100
     12 C12        -6.9244    3.0202   51.1669 C.3     1  ZINC001109404798   -0.1600
     13 C13        -6.5226    2.0730   50.0099 C.3     1  ZINC001109404798   -0.1600
     14 C14        -5.6348    0.9998   50.7093 C.3     1  ZINC001109404798    0.0400
     15 H15        -5.5349    0.0530   50.1784 H       1  ZINC001109404798    0.1200
     16 C16        -4.2985    1.7318   51.0370 C.3     1  ZINC001109404798    0.1500
     17 H17        -3.5418    1.0198   51.3664 H       1  ZINC001109404798    0.1000
     18 N18        -3.8241    2.4849   49.8735 N.am    1  ZINC001109404798   -0.7200
     19 C19        -2.9250    1.9332   49.0346 C.2     1  ZINC001109404798    0.5100
     20 O20        -2.5098    0.8127   49.2421 O.2     1  ZINC001109404798   -0.5300
     21 C21        -2.4356    2.7086   47.8386 C.3     1  ZINC001109404798   -0.1300
     22 C22        -1.0410    2.2159   47.4472 C.3     1  ZINC001109404798   -0.0400
     23 C23        -1.1615    1.1744   46.3648 C.2     1  ZINC001109404798   -0.1000
     24 C24        -1.2551    1.4904   45.0723 C.2     1  ZINC001109404798   -0.2100
     25 S25        -1.3795    0.0211   44.1134 S.3     1  ZINC001109404798    0.1000
     26 C26        -1.2947   -0.9688   45.5646 C.2     1  ZINC001109404798   -0.2100
     27 C27        -1.1773   -0.1829   46.6360 C.2     1  ZINC001109404798   -0.1300
     28 C28        -4.7046    2.6799   52.2300 C.3     1  ZINC001109404798   -0.1100
     29 N29        -8.0188    0.4697   54.4546 N.2     1  ZINC001109404798   -0.4800
     30 H30        -8.5102    1.7048   57.2067 H       1  ZINC001109404798    0.0900
     31 H31       -10.0339    0.7888   57.1207 H       1  ZINC001109404798    0.0900
     32 H32        -8.4756   -0.0705   57.0833 H       1  ZINC001109404798    0.0900
     33 H33        -8.7296   -1.3827   51.6321 H       1  ZINC001109404798    0.0700
     34 H34        -7.1686   -1.2652   50.7848 H       1  ZINC001109404798    0.0800
     35 H35        -7.2086   -1.5529   52.5409 H       1  ZINC001109404798    0.0800
     36 H36        -8.0065    3.0283   51.2980 H       1  ZINC001109404798    0.0700
     37 H37        -6.5513    4.0280   50.9849 H       1  ZINC001109404798    0.0800
     38 H38        -7.4054    1.6116   49.5675 H       1  ZINC001109404798    0.0700
     39 H39        -5.9503    2.6113   49.2544 H       1  ZINC001109404798    0.0800
     40 H40        -4.1570    3.3806   49.7067 H       1  ZINC001109404798    0.4000
     41 H41        -3.1209    2.5602   47.0041 H       1  ZINC001109404798    0.0900
     42 H42        -2.3899    3.7690   48.0869 H       1  ZINC001109404798    0.1000
     43 H43        -0.4492    3.0546   47.0802 H       1  ZINC001109404798    0.0800
     44 H44        -0.5520    1.7798   48.3183 H       1  ZINC001109404798    0.0800
     45 H45        -1.2552    2.4948   44.6752 H       1  ZINC001109404798    0.1600
     46 H46        -1.3277   -2.0481   45.5848 H       1  ZINC001109404798    0.1600
     47 H47        -1.1080   -0.5756   47.6397 H       1  ZINC001109404798    0.1400
     48 H48        -4.5573    3.7249   51.9570 H       1  ZINC001109404798    0.0800
     49 H49        -4.1366    2.4328   53.1270 H       1  ZINC001109404798    0.0900
@<TRIPOS>BOND
     1     1     2    1
     2     1    30    1
     3     1    31    1
     4     1    32    1
     5     2    29    1
     6     2     3    2
     7     3     4    1
     8     4     5    1
     9     5     6    1
    10     5    29    2
    11     6     7    1
    12     6     8    1
    13     6     9    1
    14     8    33    1
    15     8    34    1
    16     8    35    1
    17     9    14    1
    18     9    10    1
    19    10    11    1
    20    10    28    1
    21    10    12    1
    22    12    13    1
    23    12    36    1
    24    12    37    1
    25    13    14    1
    26    13    38    1
    27    13    39    1
    28    14    15    1
    29    14    16    1
    30    16    17    1
    31    16    18    1
    32    16    28    1
    33    18    19   am
    34    18    40    1
    35    19    20    2
    36    19    21    1
    37    21    22    1
    38    21    41    1
    39    21    42    1
    40    22    23    1
    41    22    43    1
    42    22    44    1
    43    23    27    1
    44    23    24    2
    45    24    25    1
    46    24    45    1
    47    25    26    1
    48    26    27    2
    49    26    46    1
    50    27    47    1
    51    28    48    1
    52    28    49    1
@<TRIPOS>SUBSTRUCTURE
     1 ZINC001109404798        1 TEMP              0 ****  ****    0 ROOT


##########                                Name:    ZINC000929592477
##########                DOCK_Rotatable_Bonds:                   7
##########                         Heavy_Atoms:                  28
##########                    Molecular_Weight:             399.517
##########                DOCK_Rotatable_Bonds:                   7
##########                       Formal_Charge:         -8.9407e-08
##########                     HBond_Acceptors:                   8
##########                        HBond_Donors:                   3
##########                         Heavy_Atoms:                  28
##########                          Grid_Score:          -32.151642
##########                     Grid_vdw_energy:          -31.394695
##########                      Grid_es_energy:           -0.756947
##########           Internal_energy_repulsive:           11.431676

@<TRIPOS>MOLECULE
ZINC000929592477
 53 56 1 0 0
SMALL
USER_CHARGES


@<TRIPOS>ATOM
      1 O1         -9.0930    1.3906   53.6498 O.2     1  ZINC000929592477   -0.5700
      2 C2         -8.9571    0.7978   52.5968 C.2     1  ZINC000929592477    0.7100
      3 N3         -9.8749   -0.1110   52.2120 N.am    1  ZINC000929592477   -0.6800
      4 C4        -10.9831   -0.3771   53.0283 C.ar    1  ZINC000929592477    0.1600
      5 C5        -12.2621   -0.0690   52.5843 C.ar    1  ZINC000929592477   -0.1300
      6 C6        -13.3538   -0.3303   53.3879 C.ar    1  ZINC000929592477   -0.0800
      7 C7        -13.1725   -0.9023   54.6411 C.ar    1  ZINC000929592477   -0.1000
      8 S8        -14.5653   -1.2369   55.6670 S.3     1  ZINC000929592477   -0.1100
      9 C9        -13.9213   -2.4574   56.8443 C.3     1  ZINC000929592477   -0.0800
     10 C10       -15.0219   -2.8718   57.8522 C.3     1  ZINC000929592477   -0.1200
     11 C11       -14.5402   -4.2636   58.3315 C.3     1  ZINC000929592477   -0.1200
     12 C12       -13.9535   -4.9181   57.0637 C.3     1  ZINC000929592477   -0.1200
     13 C13       -13.5599   -3.7697   56.1181 C.3     1  ZINC000929592477   -0.1000
     14 C14       -11.8925   -1.2111   55.0848 C.ar    1  ZINC000929592477   -0.1200
     15 C15       -10.8020   -0.9540   54.2782 C.ar    1  ZINC000929592477   -0.1000
     16 N16        -7.8916    1.0536   51.8121 N.am    1  ZINC000929592477   -0.7300
     17 C17        -6.8940    2.0416   52.2304 C.3     1  ZINC000929592477    0.1500
     18 H18        -6.9718    2.2370   53.2999 H       1  ZINC000929592477    0.1200
     19 C19        -7.0490    3.3553   51.4196 C.3     1  ZINC000929592477   -0.1400
     20 C20        -6.2678    3.0160   50.1256 C.3     1  ZINC000929592477    0.1100
     21 N21        -5.1244    2.2026   50.5773 N.pl3   1  ZINC000929592477   -0.6000
     22 C22        -3.9263    2.0577   49.9082 C.2     1  ZINC000929592477    0.4600
     23 C23        -3.8701    2.2251   48.5345 C.2     1  ZINC000929592477   -0.4000
     24 C24        -2.6335    2.0691   47.8932 C.2     1  ZINC000929592477    0.5300
     25 O25        -2.5380    2.2080   46.6842 O.2     1  ZINC000929592477   -0.5500
     26 N26        -1.5506    1.7628   48.6379 N.am    1  ZINC000929592477   -0.6400
     27 C27        -1.6637    1.6113   49.9725 C.2     1  ZINC000929592477    0.4100
     28 N28        -2.8062    1.7587   50.5849 N.2     1  ZINC000929592477   -0.5700
     29 C29        -5.4712    1.5698   51.8636 C.3     1  ZINC000929592477    0.1100
     30 H30        -9.7686   -0.5811   51.3701 H       1  ZINC000929592477    0.4100
     31 H31       -12.4030    0.3757   51.6102 H       1  ZINC000929592477    0.1300
     32 H32       -14.3484   -0.0900   53.0428 H       1  ZINC000929592477    0.1300
     33 H33       -13.0521   -2.0594   57.3678 H       1  ZINC000929592477    0.1000
     34 H34       -15.0666   -2.1703   58.6854 H       1  ZINC000929592477    0.0700
     35 H35       -15.9902   -2.9474   57.3573 H       1  ZINC000929592477    0.0800
     36 H36       -13.7715   -4.1584   59.0972 H       1  ZINC000929592477    0.0700
     37 H37       -15.3789   -4.8482   58.7094 H       1  ZINC000929592477    0.0700
     38 H38       -13.0737   -5.5079   57.3210 H       1  ZINC000929592477    0.0700
     39 H39       -14.7029   -5.5518   56.5897 H       1  ZINC000929592477    0.0700
     40 H40       -14.1184   -3.8461   55.1852 H       1  ZINC000929592477    0.0700
     41 H41       -12.4892   -3.8022   55.9166 H       1  ZINC000929592477    0.0800
     42 H42       -11.7511   -1.6558   56.0587 H       1  ZINC000929592477    0.1300
     43 H43        -9.8070   -1.1943   54.6229 H       1  ZINC000929592477    0.1400
     44 H44        -7.7853    0.5835   50.9703 H       1  ZINC000929592477    0.4000
     45 H45        -8.0974    3.5583   51.2012 H       1  ZINC000929592477    0.0900
     46 H46        -6.5912    4.1942   51.9438 H       1  ZINC000929592477    0.0900
     47 H47        -6.8952    2.4428   49.4431 H       1  ZINC000929592477    0.0700
     48 H48        -5.9172    3.9288   49.6438 H       1  ZINC000929592477    0.0800
     49 H49        -4.7582    2.4699   47.9708 H       1  ZINC000929592477    0.1500
     50 H50        -0.6869    1.6508   48.2107 H       1  ZINC000929592477    0.4200
     51 H51        -0.7849    1.3659   50.5504 H       1  ZINC000929592477    0.2100
     52 H52        -4.7647    1.8819   52.6327 H       1  ZINC000929592477    0.0900
     53 H53        -5.4540    0.4849   51.7597 H       1  ZINC000929592477    0.0800
@<TRIPOS>BOND
     1     1     2    2
     2     2     3   am
     3     2    16   am
     4     3     4    1
     5     3    30    1
     6     4    15   ar
     7     4     5   ar
     8     5     6   ar
     9     5    31    1
    10     6     7   ar
    11     6    32    1
    12     7     8    1
    13     7    14   ar
    14     8     9    1
    15     9    13    1
    16     9    10    1
    17     9    33    1
    18    10    11    1
    19    10    34    1
    20    10    35    1
    21    11    12    1
    22    11    36    1
    23    11    37    1
    24    12    13    1
    25    12    38    1
    26    12    39    1
    27    13    40    1
    28    13    41    1
    29    14    15   ar
    30    14    42    1
    31    15    43    1
    32    16    17    1
    33    16    44    1
    34    17    18    1
    35    17    29    1
    36    17    19    1
    37    19    20    1
    38    19    45    1
    39    19    46    1
    40    20    21    1
    41    20    47    1
    42    20    48    1
    43    21    22    1
    44    21    29    1
    45    22    28    1
    46    22    23    2
    47    23    24    1
    48    23    49    1
    49    24    25    2
    50    24    26   am
    51    26    27    1
    52    26    50    1
    53    27    28    2
    54    27    51    1
    55    29    52    1
    56    29    53    1
@<TRIPOS>SUBSTRUCTURE
     1 ZINC000929592477        1 TEMP              0 ****  ****    0 ROOT


##########                                Name:    ZINC000787750060
##########                DOCK_Rotatable_Bonds:                   6
##########                         Heavy_Atoms:                  24
##########                    Molecular_Weight:             347.438
##########                DOCK_Rotatable_Bonds:                   6
##########                       Formal_Charge:           0.0200003
##########                     HBond_Acceptors:                   7
##########                        HBond_Donors:                   2
##########                         Heavy_Atoms:                  24
##########                          Grid_Score:          -32.121445
##########                     Grid_vdw_energy:          -29.486563
##########                      Grid_es_energy:           -2.634884
##########           Internal_energy_repulsive:            4.655425

@<TRIPOS>MOLECULE
ZINC000787750060
 45 47 1 0 0
SMALL
USER_CHARGES


@<TRIPOS>ATOM
      1 C1          1.6047    3.5551   51.8491 C.3     1  ZINC000787750060   -0.1200
      2 C2          0.2726    3.1456   51.2755 C.ar    1  ZINC000787750060   -0.0400
      3 C3         -0.7050    4.1016   51.0546 C.ar    1  ZINC000787750060   -0.1300
      4 C4         -1.9269    3.7384   50.5306 C.ar    1  ZINC000787750060   -0.0700
      5 C5         -2.1816    2.4007   50.2199 C.ar    1  ZINC000787750060   -0.1700
      6 C6         -3.4872    2.0049   49.6581 C.2     1  ZINC000787750060    0.5600
      7 O7         -3.6281    1.9126   48.4540 O.2     1  ZINC000787750060   -0.5200
      8 N8         -4.5236    1.7458   50.4798 N.am    1  ZINC000787750060   -0.7300
      9 C9         -5.8205    1.3545   49.9219 C.3     1  ZINC000787750060    0.2100
     10 C10        -6.5990    0.5813   50.9550 C.2     1  ZINC000787750060   -0.2800
     11 C11        -6.6974   -0.7463   51.0291 C.2     1  ZINC000787750060    0.0900
     12 N12        -7.4403   -1.1873   52.0286 N.2     1  ZINC000787750060   -0.5200
     13 C13        -7.9736   -0.2929   52.8016 C.2     1  ZINC000787750060    0.2300
     14 N14        -8.7791   -0.5674   53.8957 N.3     1  ZINC000787750060   -0.4500
     15 C15       -10.1929   -0.6501   53.5016 C.3     1  ZINC000787750060    0.0200
     16 C16       -11.0380   -1.0128   54.7256 C.3     1  ZINC000787750060    0.0600
     17 O17       -10.8184   -0.0439   55.7544 O.3     1  ZINC000787750060   -0.3800
     18 C18        -9.4521    0.0624   56.1630 C.3     1  ZINC000787750060    0.0600
     19 C19        -8.5910    0.4360   54.9535 C.3     1  ZINC000787750060    0.0300
     20 S20        -7.5313    1.2739   52.2795 S.3     1  ZINC000787750060    0.1700
     21 C21        -1.1893    1.4363   50.4445 C.ar    1  ZINC000787750060    0.1700
     22 O22        -1.4251    0.1339   50.1467 O.3     1  ZINC000787750060   -0.4700
     23 C23         0.0359    1.8202   50.9680 C.ar    1  ZINC000787750060   -0.1200
     24 C24         1.1068    0.7883   51.2118 C.3     1  ZINC000787750060   -0.1200
     25 H25         2.2868    3.8097   51.0378 H       1  ZINC000787750060    0.0800
     26 H26         1.4706    4.4218   52.4964 H       1  ZINC000787750060    0.0700
     27 H27         2.0203    2.7301   52.4277 H       1  ZINC000787750060    0.0800
     28 H28        -0.5091    5.1362   51.2945 H       1  ZINC000787750060    0.1300
     29 H29        -2.6865    4.4870   50.3606 H       1  ZINC000787750060    0.1300
     30 H30        -4.4108    1.8184   51.4405 H       1  ZINC000787750060    0.4000
     31 H31        -6.3787    2.2471   49.6393 H       1  ZINC000787750060    0.0900
     32 H32        -5.6642    0.7301   49.0424 H       1  ZINC000787750060    0.0800
     33 H33        -6.2092   -1.4077   50.3287 H       1  ZINC000787750060    0.1800
     34 H34       -10.5178    0.3129   53.1075 H       1  ZINC000787750060    0.0600
     35 H35       -10.3132   -1.4167   52.7362 H       1  ZINC000787750060    0.1000
     36 H36       -12.0928   -1.0193   54.4508 H       1  ZINC000787750060    0.1100
     37 H37       -10.7496   -1.9997   55.0875 H       1  ZINC000787750060    0.0700
     38 H38        -9.3598    0.8337   56.9276 H       1  ZINC000787750060    0.1100
     39 H39        -9.1174   -0.8932   56.5667 H       1  ZINC000787750060    0.0600
     40 H40        -7.5418    0.4623   55.2479 H       1  ZINC000787750060    0.1000
     41 H41        -8.8902    1.4164   54.5826 H       1  ZINC000787750060    0.0700
     42 H42        -0.7113   -0.4645   50.4066 H       1  ZINC000787750060    0.4000
     43 H43         1.7247    0.6882   50.3194 H       1  ZINC000787750060    0.0700
     44 H44         1.7283    1.1009   52.0509 H       1  ZINC000787750060    0.0700
     45 H45         0.6419   -0.1705   51.4413 H       1  ZINC000787750060    0.0800
@<TRIPOS>BOND
     1     1     2    1
     2     1    25    1
     3     1    26    1
     4     1    27    1
     5     2    23   ar
     6     2     3   ar
     7     3     4   ar
     8     3    28    1
     9     4     5   ar
    10     4    29    1
    11     5     6    1
    12     5    21   ar
    13     6     7    2
    14     6     8   am
    15     8     9    1
    16     8    30    1
    17     9    10    1
    18     9    31    1
    19     9    32    1
    20    10    20    1
    21    10    11    2
    22    11    12    1
    23    11    33    1
    24    12    13    2
    25    13    14    1
    26    13    20    1
    27    14    19    1
    28    14    15    1
    29    15    16    1
    30    15    34    1
    31    15    35    1
    32    16    17    1
    33    16    36    1
    34    16    37    1
    35    17    18    1
    36    18    19    1
    37    18    38    1
    38    18    39    1
    39    19    40    1
    40    19    41    1
    41    21    22    1
    42    21    23   ar
    43    22    42    1
    44    23    24    1
    45    24    43    1
    46    24    44    1
    47    24    45    1
@<TRIPOS>SUBSTRUCTURE
     1 ZINC000787750060        1 TEMP              0 ****  ****    0 ROOT


##########                                Name:    ZINC000555499135
##########                DOCK_Rotatable_Bonds:                   8
##########                         Heavy_Atoms:                  26
##########                    Molecular_Weight:             377.554
##########                DOCK_Rotatable_Bonds:                   8
##########                       Formal_Charge:           0.0399999
##########                     HBond_Acceptors:                   7
##########                        HBond_Donors:                   0
##########                         Heavy_Atoms:                  26
##########                          Grid_Score:          -32.114826
##########                     Grid_vdw_energy:          -29.483509
##########                      Grid_es_energy:           -2.631319
##########           Internal_energy_repulsive:           10.151032

@<TRIPOS>MOLECULE
ZINC000555499135
 57 59 1 0 0
SMALL
USER_CHARGES


@<TRIPOS>ATOM
      1 C1         -6.1188    3.4070   56.8579 C.3     1  ZINC000555499135   -0.1500
      2 C2         -6.6055    4.3239   55.7338 C.3     1  ZINC000555499135   -0.0500
      3 C3         -5.8941    3.9700   54.4534 C.2     1  ZINC000555499135   -0.2100
      4 C4         -4.6603    3.4664   54.3527 C.2     1  ZINC000555499135    0.0300
      5 N5         -4.2612    3.2409   53.1172 N.2     1  ZINC000555499135   -0.4500
      6 C6         -5.0896    3.5262   52.1701 C.2     1  ZINC000555499135    0.0400
      7 C7         -4.8165    3.3394   50.6998 C.3     1  ZINC000555499135    0.1500
      8 N8         -4.2320    2.0106   50.4753 N.3     1  ZINC000555499135   -0.4500
      9 C9         -5.2703    0.9714   50.4779 C.3     1  ZINC000555499135    0.0100
     10 C10        -3.5030    1.9812   49.2971 C.2     1  ZINC000555499135    0.3500
     11 N11        -3.9009    2.4108   48.1229 N.2     1  ZINC000555499135   -0.3100
     12 N12        -2.9713    2.2301   47.2539 N.2     1  ZINC000555499135   -0.2900
     13 C13        -1.9337    1.6792   47.8175 C.2     1  ZINC000555499135    0.2100
     14 C14        -0.6405    1.3079   47.1388 C.3     1  ZINC000555499135   -0.0300
     15 C15        -0.9400    0.4711   45.8934 C.3     1  ZINC000555499135   -0.0900
     16 C16         0.2459    0.5480   44.9299 C.3     1  ZINC000555499135   -0.1500
     17 C17        -1.1722   -0.9852   46.3012 C.3     1  ZINC000555499135   -0.1500
     18 N18        -2.2336    1.5057   49.1403 N.pl3   1  ZINC000555499135   -0.4600
     19 C19        -1.3738    0.9223   50.1730 C.3     1  ZINC000555499135    0.1100
     20 C20        -0.2644    1.9127   50.5323 C.3     1  ZINC000555499135    0.0700
     21 H21         0.0248    2.4728   49.6431 H       1  ZINC000555499135    0.0700
     22 C22         0.9477    1.1481   51.0708 C.3     1  ZINC000555499135   -0.1500
     23 C23         2.0307    2.1495   51.4843 C.3     1  ZINC000555499135   -0.1200
     24 C24         1.4476    3.1174   52.5184 C.3     1  ZINC000555499135   -0.1600
     25 C25         0.2161    3.8059   51.9240 C.3     1  ZINC000555499135    0.0600
     26 O26        -0.7383    2.8172   51.5320 O.3     1  ZINC000555499135   -0.3700
     27 S27        -6.5450    4.1398   52.8249 S.3     1  ZINC000555499135    0.1200
     28 H28        -6.3318    2.3699   56.5986 H       1  ZINC000555499135    0.0600
     29 H29        -5.0447    3.5349   56.9918 H       1  ZINC000555499135    0.0600
     30 H30        -6.6334    3.6630   57.7840 H       1  ZINC000555499135    0.0700
     31 H31        -7.6796    4.1960   55.6000 H       1  ZINC000555499135    0.0900
     32 H32        -6.3925    5.3610   55.9932 H       1  ZINC000555499135    0.0800
     33 H33        -4.0411    3.2610   55.2133 H       1  ZINC000555499135    0.1800
     34 H34        -5.7497    3.4246   50.1432 H       1  ZINC000555499135    0.0800
     35 H35        -4.1193    4.1052   50.3596 H       1  ZINC000555499135    0.1200
     36 H36        -5.9210    1.1059   49.6138 H       1  ZINC000555499135    0.0500
     37 H37        -4.8011   -0.0112   50.4300 H       1  ZINC000555499135    0.0800
     38 H38        -5.8593    1.0486   51.3918 H       1  ZINC000555499135    0.0900
     39 H39        -0.1093    2.2143   46.8483 H       1  ZINC000555499135    0.1000
     40 H40        -0.0228    0.7291   47.8256 H       1  ZINC000555499135    0.1000
     41 H41        -1.8330    0.8576   45.4022 H       1  ZINC000555499135    0.0800
     42 H42         0.4365    1.5894   44.6707 H       1  ZINC000555499135    0.0500
     43 H43         1.1298    0.1247   45.4071 H       1  ZINC000555499135    0.0600
     44 H44         0.0163   -0.0154   44.0254 H       1  ZINC000555499135    0.0600
     45 H45        -2.0172   -1.0400   46.9877 H       1  ZINC000555499135    0.0600
     46 H46        -1.3856   -1.5814   45.4141 H       1  ZINC000555499135    0.0600
     47 H47        -0.2792   -1.3717   46.7926 H       1  ZINC000555499135    0.0600
     48 H48        -1.9683    0.7050   51.0605 H       1  ZINC000555499135    0.1100
     49 H49        -0.9302   -0.0000   49.7981 H       1  ZINC000555499135    0.1200
     50 H50         0.6498    0.5559   51.9360 H       1  ZINC000555499135    0.0800
     51 H51         1.3376    0.4899   50.2944 H       1  ZINC000555499135    0.0800
     52 H52         2.8744    1.6147   51.9205 H       1  ZINC000555499135    0.0700
     53 H53         2.3642    2.7078   50.6095 H       1  ZINC000555499135    0.0600
     54 H54         1.1597    2.5649   53.4128 H       1  ZINC000555499135    0.0700
     55 H55         2.1948    3.8676   52.7772 H       1  ZINC000555499135    0.0800
     56 H56        -0.2281    4.4641   52.6705 H       1  ZINC000555499135    0.1000
     57 H57         0.5117    4.3909   51.0530 H       1  ZINC000555499135    0.0500
@<TRIPOS>BOND
     1     1     2    1
     2     1    28    1
     3     1    29    1
     4     1    30    1
     5     2     3    1
     6     2    31    1
     7     2    32    1
     8     3    27    1
     9     3     4    2
    10     4     5    1
    11     4    33    1
    12     5     6    2
    13     6     7    1
    14     6    27    1
    15     7     8    1
    16     7    34    1
    17     7    35    1
    18     8     9    1
    19     8    10    1
    20     9    36    1
    21     9    37    1
    22     9    38    1
    23    10    18    1
    24    10    11    2
    25    11    12    1
    26    12    13    2
    27    13    14    1
    28    13    18    1
    29    14    15    1
    30    14    39    1
    31    14    40    1
    32    15    16    1
    33    15    17    1
    34    15    41    1
    35    16    42    1
    36    16    43    1
    37    16    44    1
    38    17    45    1
    39    17    46    1
    40    17    47    1
    41    18    19    1
    42    19    20    1
    43    19    48    1
    44    19    49    1
    45    20    21    1
    46    20    26    1
    47    20    22    1
    48    22    23    1
    49    22    50    1
    50    22    51    1
    51    23    24    1
    52    23    52    1
    53    23    53    1
    54    24    25    1
    55    24    54    1
    56    24    55    1
    57    25    26    1
    58    25    56    1
    59    25    57    1
@<TRIPOS>SUBSTRUCTURE
     1 ZINC000555499135        1 TEMP              0 ****  ****    0 ROOT


##########                                Name:    ZINC000847397179
##########                DOCK_Rotatable_Bonds:                   9
##########                         Heavy_Atoms:                  25
##########                    Molecular_Weight:             350.461
##########                DOCK_Rotatable_Bonds:                   9
##########                       Formal_Charge:          0.00999979
##########                     HBond_Acceptors:                   7
##########                        HBond_Donors:                   2
##########                         Heavy_Atoms:                  25
##########                          Grid_Score:          -32.063053
##########                     Grid_vdw_energy:          -31.637850
##########                      Grid_es_energy:           -0.425203
##########           Internal_energy_repulsive:           84.427444

@<TRIPOS>MOLECULE
ZINC000847397179
 55 56 1 0 0
SMALL
USER_CHARGES


@<TRIPOS>ATOM
      1 C1         -7.1410    2.8917   52.4879 C.3     1  ZINC000847397179   -0.1500
      2 C2         -7.0206    1.5500   51.7625 C.3     1  ZINC000847397179   -0.1000
      3 H3         -7.9990    1.2510   51.3866 H       1  ZINC000847397179    0.0900
      4 C4         -6.5021    0.4890   52.7353 C.3     1  ZINC000847397179   -0.0200
      5 C5         -7.5839    0.1446   53.7263 C.2     1  ZINC000847397179    0.0100
      6 C6         -7.7737    0.7278   54.9252 C.2     1  ZINC000847397179   -0.0500
      7 N7         -8.8584    0.1176   55.4952 N.pl3   1  ZINC000847397179   -0.5700
      8 C8         -9.2939   -0.8179   54.6241 C.2     1  ZINC000847397179    0.1800
      9 N9         -8.5299   -0.7926   53.5664 N.2     1  ZINC000847397179   -0.4900
     10 C10        -6.0597    1.6868   50.6096 C.2     1  ZINC000847397179    0.5200
     11 O11        -6.2517    1.0691   49.5837 O.2     1  ZINC000847397179   -0.5300
     12 N12        -4.9872    2.4956   50.7186 N.am    1  ZINC000847397179   -0.7400
     13 C13        -4.0522    2.6273   49.5985 C.3     1  ZINC000847397179    0.1200
     14 C14        -2.7557    3.2742   50.0898 C.3     1  ZINC000847397179    0.1500
     15 H15        -2.9529    4.3017   50.3952 H       1  ZINC000847397179    0.0800
     16 C16        -2.2049    2.4815   51.2793 C.3     1  ZINC000847397179   -0.1300
     17 C17        -0.8402    3.0485   51.6772 C.3     1  ZINC000847397179   -0.1200
     18 C18         0.1352    2.9034   50.5068 C.3     1  ZINC000847397179   -0.1400
     19 C19        -0.3890    3.7009   49.3085 C.3     1  ZINC000847397179    0.1100
     20 N20        -1.7600    3.2641   49.0094 N.am    1  ZINC000847397179   -0.5900
     21 C21        -2.0959    2.8573   47.7692 C.2     1  ZINC000847397179    0.6500
     22 O22        -3.2328    2.4985   47.5346 O.2     1  ZINC000847397179   -0.5500
     23 O23        -1.1717    2.8485   46.7902 O.3     1  ZINC000847397179   -0.3600
     24 C24        -0.9411    1.5852   46.1126 C.3     1  ZINC000847397179    0.1400
     25 C25        -1.9417    1.4315   44.9655 C.3     1  ZINC000847397179   -0.1800
     26 C26         0.4831    1.5585   45.5541 C.3     1  ZINC000847397179   -0.1400
     27 C27        -1.1216    0.4342   47.1044 C.3     1  ZINC000847397179   -0.1800
     28 H28        -6.1626    3.1907   52.8639 H       1  ZINC000847397179    0.0500
     29 H29        -7.5105    3.6475   51.7948 H       1  ZINC000847397179    0.0500
     30 H30        -7.8360    2.7927   53.3218 H       1  ZINC000847397179    0.1000
     31 H31        -6.2193   -0.4056   52.1805 H       1  ZINC000847397179    0.0800
     32 H32        -5.6329    0.8769   53.2665 H       1  ZINC000847397179    0.0800
     33 H33        -7.1835    1.5237   55.3547 H       1  ZINC000847397179    0.1800
     34 H34        -9.2425    0.3194   56.3628 H       1  ZINC000847397179    0.4200
     35 H35       -10.1373   -1.4753   54.7759 H       1  ZINC000847397179    0.2100
     36 H36        -4.8344    2.9905   51.5387 H       1  ZINC000847397179    0.3900
     37 H37        -3.8339    1.6408   49.1896 H       1  ZINC000847397179    0.0800
     38 H38        -4.4987    3.2510   48.8240 H       1  ZINC000847397179    0.1000
     39 H39        -2.8925    2.5639   52.1211 H       1  ZINC000847397179    0.0800
     40 H40        -2.0959    1.4338   50.9992 H       1  ZINC000847397179    0.0700
     41 H41        -0.9456    4.1027   51.9334 H       1  ZINC000847397179    0.0700
     42 H42        -0.4572    2.5020   52.5390 H       1  ZINC000847397179    0.0700
     43 H43         1.1132    3.2860   50.7987 H       1  ZINC000847397179    0.0800
     44 H44         0.2221    1.8517   50.2340 H       1  ZINC000847397179    0.0700
     45 H45        -0.3909    4.7638   49.5496 H       1  ZINC000847397179    0.0700
     46 H46         0.2488    3.5215   48.4430 H       1  ZINC000847397179    0.0900
     47 H47        -1.8132    2.2515   44.2589 H       1  ZINC000847397179    0.0600
     48 H48        -1.7687    0.4831   44.4569 H       1  ZINC000847397179    0.0700
     49 H49        -2.9564    1.4506   45.3634 H       1  ZINC000847397179    0.0900
     50 H50         1.1960    1.6678   46.3714 H       1  ZINC000847397179    0.0700
     51 H51         0.6561    0.6101   45.0455 H       1  ZINC000847397179    0.0800
     52 H52         0.6117    2.3784   44.8476 H       1  ZINC000847397179    0.0700
     53 H53        -2.1363    0.4532   47.5023 H       1  ZINC000847397179    0.0900
     54 H54        -0.9486   -0.5142   46.5958 H       1  ZINC000847397179    0.0700
     55 H55        -0.4087    0.5436   47.9217 H       1  ZINC000847397179    0.0600
@<TRIPOS>BOND
     1     1     2    1
     2     1    28    1
     3     1    29    1
     4     1    30    1
     5     2     3    1
     6     2     4    1
     7     2    10    1
     8     4     5    1
     9     4    31    1
    10     4    32    1
    11     5     9    1
    12     5     6    2
    13     6     7    1
    14     6    33    1
    15     7     8    1
    16     7    34    1
    17     8     9    2
    18     8    35    1
    19    10    11    2
    20    10    12   am
    21    12    13    1
    22    12    36    1
    23    13    14    1
    24    13    37    1
    25    13    38    1
    26    14    15    1
    27    14    20    1
    28    14    16    1
    29    16    17    1
    30    16    39    1
    31    16    40    1
    32    17    18    1
    33    17    41    1
    34    17    42    1
    35    18    19    1
    36    18    43    1
    37    18    44    1
    38    19    20    1
    39    19    45    1
    40    19    46    1
    41    20    21   am
    42    21    22    2
    43    21    23    1
    44    23    24    1
    45    24    25    1
    46    24    26    1
    47    24    27    1
    48    25    47    1
    49    25    48    1
    50    25    49    1
    51    26    50    1
    52    26    51    1
    53    26    52    1
    54    27    53    1
    55    27    54    1
    56    27    55    1
@<TRIPOS>SUBSTRUCTURE
     1 ZINC000847397179        1 TEMP              0 ****  ****    0 ROOT


##########                                Name:    ZINC000809503567
##########                DOCK_Rotatable_Bonds:                   9
##########                         Heavy_Atoms:                  26
##########                    Molecular_Weight:             353.378
##########                DOCK_Rotatable_Bonds:                   9
##########                       Formal_Charge:          -0.0200002
##########                     HBond_Acceptors:                   7
##########                        HBond_Donors:                   1
##########                         Heavy_Atoms:                  26
##########                          Grid_Score:          -32.048767
##########                     Grid_vdw_energy:          -32.124630
##########                      Grid_es_energy:            0.075864
##########           Internal_energy_repulsive:            9.854958

@<TRIPOS>MOLECULE
ZINC000809503567
 45 46 1 0 0
SMALL
USER_CHARGES


@<TRIPOS>ATOM
      1 C1         -9.1551   -0.7055   61.3387 C.3     1  ZINC000809503567    0.0200
      2 O2         -8.2048   -0.3184   60.3441 O.3     1  ZINC000809503567   -0.3100
      3 C3         -8.6242   -0.3302   59.0536 C.ar    1  ZINC000809503567    0.1900
      4 C4         -9.4041   -1.3756   58.5847 C.ar    1  ZINC000809503567   -0.2100
      5 C5         -9.8304   -1.3866   57.2707 C.ar    1  ZINC000809503567   -0.0200
      6 C6         -9.4828   -0.3566   56.4128 C.ar    1  ZINC000809503567   -0.1500
      7 C7         -9.9540   -0.3811   54.9816 C.3     1  ZINC000809503567    0.1700
      8 N8         -8.7948   -0.3995   54.0860 N.am    1  ZINC000809503567   -0.7000
      9 C9         -8.9752   -0.4111   52.7504 C.2     1  ZINC000809503567    0.5100
     10 O10       -10.0978   -0.4079   52.2897 O.2     1  ZINC000809503567   -0.4900
     11 C11        -7.7926   -0.4280   51.8368 C.2     1  ZINC000809503567    0.5100
     12 O12        -7.3340   -1.4856   51.4574 O.2     1  ZINC000809503567   -0.5000
     13 N13        -7.2354    0.7312   51.4342 N.am    1  ZINC000809503567   -0.4600
     14 C14        -7.7901    2.0080   51.8907 C.3     1  ZINC000809503567    0.0800
     15 O15        -6.1139    0.7151   50.5700 O.3     1  ZINC000809503567   -0.1100
     16 C16        -5.2147    1.8087   50.7641 C.3     1  ZINC000809503567    0.0800
     17 C17        -4.0540    1.6797   49.8116 C.ar    1  ZINC000809503567   -0.0900
     18 C18        -2.9036    1.0242   50.2086 C.ar    1  ZINC000809503567   -0.1000
     19 C19        -1.8389    0.9060   49.3349 C.ar    1  ZINC000809503567   -0.1300
     20 C20        -1.9248    1.4429   48.0640 C.ar    1  ZINC000809503567   -0.1100
     21 C21        -3.0756    2.0977   47.6666 C.ar    1  ZINC000809503567   -0.1300
     22 C22        -4.1419    2.2122   48.5389 C.ar    1  ZINC000809503567   -0.0800
     23 C23        -8.7080    0.6914   56.8623 C.ar    1  ZINC000809503567   -0.0100
     24 C24        -8.2751    0.7178   58.1901 C.ar    1  ZINC000809503567   -0.0600
     25 C25        -7.4701    1.8032   58.6637 C.1     1  ZINC000809503567    0.2600
     26 N26        -6.8314    2.6644   59.0393 N.1     1  ZINC000809503567   -0.4100
     27 H27        -9.4855   -1.7265   61.1476 H       1  ZINC000809503567    0.0600
     28 H28        -8.6921   -0.6520   62.3241 H       1  ZINC000809503567    0.1100
     29 H29       -10.0125   -0.0335   61.3031 H       1  ZINC000809503567    0.0600
     30 H30        -9.6788   -2.1829   59.2473 H       1  ZINC000809503567    0.1400
     31 H31       -10.4380   -2.2034   56.9102 H       1  ZINC000809503567    0.1400
     32 H32       -10.5576   -1.2730   54.8129 H       1  ZINC000809503567    0.0900
     33 H33       -10.5539    0.5067   54.7813 H       1  ZINC000809503567    0.0900
     34 H34        -7.8974   -0.4033   54.4543 H       1  ZINC000809503567    0.4100
     35 H35        -7.3007    2.3061   52.8179 H       1  ZINC000809503567    0.0800
     36 H36        -7.6218    2.7701   51.1299 H       1  ZINC000809503567    0.0800
     37 H37        -8.8606    1.8979   52.0640 H       1  ZINC000809503567    0.0900
     38 H38        -5.7371    2.7465   50.5754 H       1  ZINC000809503567    0.0700
     39 H39        -4.8459    1.7982   51.7897 H       1  ZINC000809503567    0.0600
     40 H40        -2.8365    0.6047   51.2015 H       1  ZINC000809503567    0.1200
     41 H41        -0.9398    0.3944   49.6453 H       1  ZINC000809503567    0.1200
     42 H42        -1.0928    1.3512   47.3816 H       1  ZINC000809503567    0.1200
     43 H43        -3.1425    2.5175   46.6738 H       1  ZINC000809503567    0.1200
     44 H44        -5.0410    2.7238   48.2285 H       1  ZINC000809503567    0.1300
     45 H45        -8.4392    1.4926   56.1899 H       1  ZINC000809503567    0.1400
@<TRIPOS>BOND
     1     1     2    1
     2     1    27    1
     3     1    28    1
     4     1    29    1
     5     2     3    1
     6     3    24   ar
     7     3     4   ar
     8     4     5   ar
     9     4    30    1
    10     5     6   ar
    11     5    31    1
    12     6     7    1
    13     6    23   ar
    14     7     8    1
    15     7    32    1
    16     7    33    1
    17     8     9   am
    18     8    34    1
    19     9    10    2
    20     9    11    1
    21    11    12    2
    22    11    13   am
    23    13    14    1
    24    13    15    1
    25    14    35    1
    26    14    36    1
    27    14    37    1
    28    15    16    1
    29    16    17    1
    30    16    38    1
    31    16    39    1
    32    17    22   ar
    33    17    18   ar
    34    18    19   ar
    35    18    40    1
    36    19    20   ar
    37    19    41    1
    38    20    21   ar
    39    20    42    1
    40    21    22   ar
    41    21    43    1
    42    22    44    1
    43    23    24   ar
    44    23    45    1
    45    24    25    1
    46    25    26    3
@<TRIPOS>SUBSTRUCTURE
     1 ZINC000809503567        1 TEMP              0 ****  ****    0 ROOT


##########                                Name:    ZINC000624498741
##########                DOCK_Rotatable_Bonds:                   7
##########                         Heavy_Atoms:                  27
##########                    Molecular_Weight:             379.339
##########                DOCK_Rotatable_Bonds:                   7
##########                       Formal_Charge:           0.0300003
##########                     HBond_Acceptors:                   9
##########                        HBond_Donors:                   0
##########                         Heavy_Atoms:                  27
##########                          Grid_Score:          -32.042870
##########                     Grid_vdw_energy:          -30.411499
##########                      Grid_es_energy:           -1.631370
##########           Internal_energy_repulsive:            9.431504

@<TRIPOS>MOLECULE
ZINC000624498741
 43 45 1 0 0
SMALL
USER_CHARGES


@<TRIPOS>ATOM
      1 C1        -10.7771    2.5841   52.3918 C.3     1  ZINC000624498741   -0.1100
      2 C2         -9.4795    1.8702   52.1126 C.ar    1  ZINC000624498741   -0.0900
      3 C3         -8.3771    2.5843   51.6979 C.ar    1  ZINC000624498741   -0.0400
      4 C4         -7.1746    1.9216   51.4398 C.ar    1  ZINC000624498741   -0.0500
      5 C5         -5.9903    2.6833   50.9955 C.2     1  ZINC000624498741    0.2300
      6 N6         -4.9911    2.2303   50.2577 N.2     1  ZINC000624498741   -0.4700
      7 C7         -4.1545    3.2691   50.1088 C.2     1  ZINC000624498741    0.1800
      8 C8         -2.8570    3.2636   49.3424 C.3     1  ZINC000624498741   -0.0300
      9 C9         -2.9402    2.2424   48.2062 C.3     1  ZINC000624498741   -0.1300
     10 C10        -1.6294    2.2496   47.4170 C.3     1  ZINC000624498741    0.0900
     11 N11        -1.5937    1.0928   46.5188 N.am    1  ZINC000624498741   -0.5000
     12 C12        -1.2892   -0.1334   47.0156 C.2     1  ZINC000624498741    0.1300
     13 C13        -1.2498   -1.2169   46.2054 C.2     1  ZINC000624498741   -0.2300
     14 C14        -1.5255   -1.0786   44.8377 C.2     1  ZINC000624498741   -0.0200
     15 C15        -1.8315    0.1541   44.3406 C.2     1  ZINC000624498741   -0.2400
     16 C16        -1.8687    1.2569   45.2109 C.2     1  ZINC000624498741    0.5100
     17 O17        -2.1412    2.3657   44.7793 O.2     1  ZINC000624498741   -0.5500
     18 N18        -4.6663    4.2814   50.7447 N.2     1  ZINC000624498741   -0.3700
     19 O19        -5.7211    3.9720   51.2570 O.3     1  ZINC000624498741    0.0900
     20 C20        -7.0956    0.5368   51.6035 C.ar    1  ZINC000624498741   -0.0200
     21 C21        -8.2029   -0.1702   52.0186 C.ar    1  ZINC000624498741   -0.1900
     22 C22        -9.3954    0.4932   52.2794 C.ar    1  ZINC000624498741    0.1300
     23 O23       -10.4843   -0.2071   52.6882 O.3     1  ZINC000624498741   -0.3000
     24 C24       -10.4926   -0.6612   54.0431 C.3     1  ZINC000624498741    0.6000
     25 F25       -11.6052   -1.4829   54.2528 F       1  ZINC000624498741   -0.1600
     26 F26        -9.3232   -1.3853   54.2994 F       1  ZINC000624498741   -0.1300
     27 F27       -10.5572    0.4399   54.9036 F       1  ZINC000624498741   -0.1600
     28 H28       -10.8048    2.8920   53.4370 H       1  ZINC000624498741    0.0800
     29 H29       -10.8532    3.4632   51.7519 H       1  ZINC000624498741    0.0800
     30 H30       -11.6119    1.9133   52.1884 H       1  ZINC000624498741    0.0800
     31 H31        -8.4423    3.6549   51.5721 H       1  ZINC000624498741    0.1500
     32 H32        -2.6760    4.2550   48.9273 H       1  ZINC000624498741    0.1000
     33 H33        -2.0402    2.9956   50.0127 H       1  ZINC000624498741    0.1000
     34 H34        -3.1084    1.2489   48.6220 H       1  ZINC000624498741    0.0800
     35 H35        -3.7649    2.5032   47.5429 H       1  ZINC000624498741    0.0800
     36 H36        -1.5628    3.1664   46.8315 H       1  ZINC000624498741    0.1100
     37 H37        -0.7885    2.1985   48.1088 H       1  ZINC000624498741    0.1000
     38 H38        -1.0761   -0.2456   48.0683 H       1  ZINC000624498741    0.1600
     39 H39        -1.0056   -2.1873   46.6120 H       1  ZINC000624498741    0.1500
     40 H40        -1.4955   -1.9386   44.1850 H       1  ZINC000624498741    0.1400
     41 H41        -2.0469    0.2806   43.2898 H       1  ZINC000624498741    0.1500
     42 H42        -6.1679    0.0208   51.4045 H       1  ZINC000624498741    0.1500
     43 H43        -8.1428   -1.2411   52.1451 H       1  ZINC000624498741    0.1500
@<TRIPOS>BOND
     1     1     2    1
     2     1    28    1
     3     1    29    1
     4     1    30    1
     5     2    22   ar
     6     2     3   ar
     7     3     4   ar
     8     3    31    1
     9     4     5    1
    10     4    20   ar
    11     5    19    1
    12     5     6    2
    13     6     7    1
    14     7     8    1
    15     7    18    2
    16     8     9    1
    17     8    32    1
    18     8    33    1
    19     9    10    1
    20     9    34    1
    21     9    35    1
    22    10    11    1
    23    10    36    1
    24    10    37    1
    25    11    16   am
    26    11    12    1
    27    12    13    2
    28    12    38    1
    29    13    14    1
    30    13    39    1
    31    14    15    2
    32    14    40    1
    33    15    16    1
    34    15    41    1
    35    16    17    2
    36    18    19    1
    37    20    21   ar
    38    20    42    1
    39    21    22   ar
    40    21    43    1
    41    22    23    1
    42    23    24    1
    43    24    25    1
    44    24    26    1
    45    24    27    1
@<TRIPOS>SUBSTRUCTURE
     1 ZINC000624498741        1 TEMP              0 ****  ****    0 ROOT


##########                                Name:    ZINC000369046711
##########                DOCK_Rotatable_Bonds:                   8
##########                         Heavy_Atoms:                  26
##########                    Molecular_Weight:             367.467
##########                DOCK_Rotatable_Bonds:                   8
##########                       Formal_Charge:        -7.63685e-07
##########                     HBond_Acceptors:                   8
##########                        HBond_Donors:                   1
##########                         Heavy_Atoms:                  26
##########                          Grid_Score:          -32.037373
##########                     Grid_vdw_energy:          -32.474121
##########                      Grid_es_energy:            0.436749
##########           Internal_energy_repulsive:           17.468363

@<TRIPOS>MOLECULE
ZINC000369046711
 56 58 1 0 0
SMALL
USER_CHARGES


@<TRIPOS>ATOM
      1 C1        -10.3197    1.3584   54.4697 C.3     1  ZINC000369046711   -0.1800
      2 C2        -10.2274   -0.1533   54.2521 C.3     1  ZINC000369046711    0.1400
      3 C3         -9.2666   -0.7584   55.2776 C.3     1  ZINC000369046711   -0.1800
      4 C4        -11.6136   -0.7784   54.4212 C.3     1  ZINC000369046711   -0.1400
      5 O5         -9.7361   -0.4203   52.9121 O.3     1  ZINC000369046711   -0.3700
      6 C6         -8.4058   -0.3389   52.7212 C.2     1  ZINC000369046711    0.6500
      7 O7         -7.7171   -1.3360   52.8108 O.2     1  ZINC000369046711   -0.5700
      8 N8         -7.8382    0.8484   52.4310 N.am    1  ZINC000369046711   -0.7100
      9 C9         -6.3908    0.9367   52.2216 C.3     1  ZINC000369046711    0.1800
     10 H10        -5.9403   -0.0306   52.4439 H       1  ZINC000369046711    0.0900
     11 C11        -5.8131    1.9856   53.1711 C.3     1  ZINC000369046711   -0.1300
     12 C12        -6.4497    3.3383   52.8310 C.3     1  ZINC000369046711   -0.1200
     13 C13        -6.0276    3.7279   51.4173 C.3     1  ZINC000369046711   -0.1200
     14 C14        -6.5385    2.7136   50.3921 C.3     1  ZINC000369046711   -0.1000
     15 H15        -7.6109    2.8085   50.2217 H       1  ZINC000369046711    0.0900
     16 C16        -5.7123    2.9434   49.0970 C.3     1  ZINC000369046711    0.0400
     17 N17        -4.5438    2.0444   49.1674 N.3     1  ZINC000369046711   -0.5200
     18 C18        -3.2892    2.8057   49.1025 C.3     1  ZINC000369046711    0.1200
     19 C19        -2.5261    2.4120   47.8641 C.2     1  ZINC000369046711    0.2900
     20 N20        -3.0308    1.8445   46.7987 N.2     1  ZINC000369046711   -0.5400
     21 C21        -2.0702    1.6382   45.8986 C.2     1  ZINC000369046711    0.2000
     22 N22        -0.9360    2.0736   46.3809 N.2     1  ZINC000369046711   -0.3200
     23 N23        -1.2092    2.5878   47.6589 N.pl3   1  ZINC000369046711   -0.3700
     24 C24        -0.2483    3.1877   48.5879 C.3     1  ZINC000369046711    0.1000
     25 C25         0.3687    2.0931   49.4608 C.3     1  ZINC000369046711    0.0500
     26 F26        -0.5875    1.1036   49.7134 F       1  ZINC000369046711   -0.2000
     27 C27        -4.6258    1.2615   50.4235 C.3     1  ZINC000369046711    0.0500
     28 C28        -6.1232    1.2838   50.7793 C.3     1  ZINC000369046711   -0.1000
     29 H29        -6.6531    0.5736   50.1445 H       1  ZINC000369046711    0.0900
     30 H30        -9.3322    1.8037   54.3492 H       1  ZINC000369046711    0.0900
     31 H31       -11.0042    1.7894   53.7392 H       1  ZINC000369046711    0.0600
     32 H32       -10.6885    1.5588   55.4756 H       1  ZINC000369046711    0.0700
     33 H33        -9.6354   -0.5580   56.2835 H       1  ZINC000369046711    0.0700
     34 H34        -9.2008   -1.8354   55.1226 H       1  ZINC000369046711    0.0600
     35 H35        -8.2791   -0.3130   55.1571 H       1  ZINC000369046711    0.0900
     36 H36       -12.2982   -0.3473   53.6906 H       1  ZINC000369046711    0.0700
     37 H37       -11.5478   -1.8554   54.2662 H       1  ZINC000369046711    0.0700
     38 H38       -11.9823   -0.5780   55.4270 H       1  ZINC000369046711    0.0800
     39 H39        -8.3878    1.6446   52.3608 H       1  ZINC000369046711    0.4000
     40 H40        -6.0463    1.7177   54.2016 H       1  ZINC000369046711    0.0700
     41 H41        -4.7324    2.0443   53.0411 H       1  ZINC000369046711    0.0800
     42 H42        -7.5355    3.2556   52.8801 H       1  ZINC000369046711    0.0600
     43 H43        -6.1064    4.0937   53.5379 H       1  ZINC000369046711    0.0700
     44 H44        -6.4338    4.7114   51.1808 H       1  ZINC000369046711    0.0700
     45 H45        -4.9395    3.7698   51.3676 H       1  ZINC000369046711    0.0600
     46 H46        -6.3160    2.7013   48.2224 H       1  ZINC000369046711    0.0800
     47 H47        -5.3813    3.9808   49.0458 H       1  ZINC000369046711    0.0800
     48 H48        -3.5126    3.8720   49.0679 H       1  ZINC000369046711    0.0800
     49 H49        -2.6868    2.5891   49.9847 H       1  ZINC000369046711    0.1000
     50 H50        -2.2066    1.1844   44.9281 H       1  ZINC000369046711    0.2200
     51 H51         0.5381    3.6890   48.0236 H       1  ZINC000369046711    0.1200
     52 H52        -0.7595    3.9126   49.2213 H       1  ZINC000369046711    0.1100
     53 H53         1.2200    1.6518   48.9425 H       1  ZINC000369046711    0.0900
     54 H54         0.7020    2.5255   50.4042 H       1  ZINC000369046711    0.0800
     55 H55        -4.2862    0.2389   50.2591 H       1  ZINC000369046711    0.0900
     56 H56        -4.0400    1.7380   51.2095 H       1  ZINC000369046711    0.0600
@<TRIPOS>BOND
     1     1     2    1
     2     1    30    1
     3     1    31    1
     4     1    32    1
     5     2     3    1
     6     2     4    1
     7     2     5    1
     8     3    33    1
     9     3    34    1
    10     3    35    1
    11     4    36    1
    12     4    37    1
    13     4    38    1
    14     5     6    1
    15     6     7    2
    16     6     8   am
    17     8     9    1
    18     8    39    1
    19     9    10    1
    20     9    28    1
    21     9    11    1
    22    11    12    1
    23    11    40    1
    24    11    41    1
    25    12    13    1
    26    12    42    1
    27    12    43    1
    28    13    14    1
    29    13    44    1
    30    13    45    1
    31    14    15    1
    32    14    28    1
    33    14    16    1
    34    16    17    1
    35    16    46    1
    36    16    47    1
    37    17    18    1
    38    17    27    1
    39    18    19    1
    40    18    48    1
    41    18    49    1
    42    19    23    1
    43    19    20    2
    44    20    21    1
    45    21    22    2
    46    21    50    1
    47    22    23    1
    48    23    24    1
    49    24    25    1
    50    24    51    1
    51    24    52    1
    52    25    26    1
    53    25    53    1
    54    25    54    1
    55    27    28    1
    56    27    55    1
    57    27    56    1
    58    28    29    1
@<TRIPOS>SUBSTRUCTURE
     1 ZINC000369046711        1 TEMP              0 ****  ****    0 ROOT


##########                                Name:    ZINC000654382142
##########                DOCK_Rotatable_Bonds:                  14
##########                         Heavy_Atoms:                  24
##########                    Molecular_Weight:             379.401
##########                DOCK_Rotatable_Bonds:                  14
##########                       Formal_Charge:          0.00999933
##########                     HBond_Acceptors:                  12
##########                        HBond_Donors:                   2
##########                         Heavy_Atoms:                  24
##########                          Grid_Score:          -32.032913
##########                     Grid_vdw_energy:          -31.480253
##########                      Grid_es_energy:           -0.552660
##########           Internal_energy_repulsive:           21.369003

@<TRIPOS>MOLECULE
ZINC000654382142
 48 47 1 0 0
SMALL
USER_CHARGES


@<TRIPOS>ATOM
      1 C1         -7.0944   -0.2737   51.4212 C.3     1  ZINC000654382142    0.0300
      2 O2         -6.0502   -0.1676   50.4514 O.3     1  ZINC000654382142   -0.3700
      3 C3         -5.2205    0.9844   50.6144 C.3     1  ZINC000654382142    0.0400
      4 C4         -5.7451    2.1196   49.7329 C.3     1  ZINC000654382142    0.1400
      5 N5         -4.8893    3.2978   49.8931 N.am    1  ZINC000654382142   -0.6100
      6 C6         -5.3637    4.4479   50.6666 C.3     1  ZINC000654382142    0.0800
      7 C7         -5.5606    4.0345   52.1265 C.3     1  ZINC000654382142    0.0500
      8 H8         -5.9608    3.0214   52.1664 H       1  ZINC000654382142    0.1400
      9 O9         -6.4756    4.9332   52.7567 O.3     1  ZINC000654382142   -0.5200
     10 C10        -4.2162    4.0810   52.8555 C.3     1  ZINC000654382142    0.4200
     11 F11        -3.3551    3.1243   52.3072 F       1  ZINC000654382142   -0.1800
     12 F12        -3.6519    5.3531   52.7122 F       1  ZINC000654382142   -0.1700
     13 F13        -4.4125    3.8080   54.2135 F       1  ZINC000654382142   -0.1800
     14 C14        -3.6657    3.3236   49.3288 C.2     1  ZINC000654382142    0.7100
     15 O15        -2.9549    4.3009   49.4630 O.2     1  ZINC000654382142   -0.5600
     16 N16        -3.2300    2.2662   48.6158 N.am    1  ZINC000654382142   -0.7500
     17 C17        -1.9005    2.2950   48.0009 C.3     1  ZINC000654382142    0.1400
     18 C18        -1.9744    1.6898   46.5976 C.3     1  ZINC000654382142   -0.1600
     19 C19        -0.9690    0.5422   46.4836 C.3     1  ZINC000654382142    0.1200
     20 N20        -0.4279    0.5004   45.1229 N.am    1  ZINC000654382142   -1.0000
     21 C21        -1.1756   -0.1721   44.0576 C.3     1  ZINC000654382142    0.0900
     22 S22         1.0289    1.2135   44.7888 S.o2    1  ZINC000654382142    2.6100
     23 C23         2.2113    0.3512   45.8607 C.3     1  ZINC000654382142   -0.6800
     24 O24         1.2695    0.8967   43.4246 O.2     1  ZINC000654382142   -0.9500
     25 O25         0.8645    2.5606   45.2101 O.2     1  ZINC000654382142   -0.9500
     26 H26        -7.6787   -1.1736   51.2290 H       1  ZINC000654382142    0.0900
     27 H27        -6.6592   -0.3293   52.4191 H       1  ZINC000654382142    0.0400
     28 H28        -7.7417    0.6008   51.3554 H       1  ZINC000654382142    0.0400
     29 H29        -5.2355    1.2983   51.6581 H       1  ZINC000654382142    0.0500
     30 H30        -4.1989    0.7405   50.3230 H       1  ZINC000654382142    0.0600
     31 H31        -5.7365    1.8033   48.6898 H       1  ZINC000654382142    0.0900
     32 H32        -6.7644    2.3679   50.0288 H       1  ZINC000654382142    0.1000
     33 H33        -4.6282    5.2505   50.6123 H       1  ZINC000654382142    0.1000
     34 H34        -6.3119    4.7956   50.2563 H       1  ZINC000654382142    0.1000
     35 H35        -6.6020    4.7678   53.7010 H       1  ZINC000654382142    0.3900
     36 H36        -3.7965    1.4860   48.5098 H       1  ZINC000654382142    0.3900
     37 H37        -1.5534    3.3261   47.9342 H       1  ZINC000654382142    0.0700
     38 H38        -1.2059    1.7165   48.6101 H       1  ZINC000654382142    0.0700
     39 H39        -2.9804    1.3107   46.4180 H       1  ZINC000654382142    0.0700
     40 H40        -1.7373    2.4553   45.8589 H       1  ZINC000654382142    0.0800
     41 H41        -0.1565    0.6991   47.1931 H       1  ZINC000654382142    0.0900
     42 H42        -1.4679   -0.4013   46.7054 H       1  ZINC000654382142    0.1000
     43 H43        -1.8425    0.5423   43.5749 H       1  ZINC000654382142    0.0600
     44 H44        -0.4785   -0.5731   43.3218 H       1  ZINC000654382142    0.0700
     45 H45        -1.7622   -0.9861   44.4836 H       1  ZINC000654382142    0.0700
     46 H46         2.2133   -0.7116   45.6184 H       1  ZINC000654382142    0.1300
     47 H47         3.2091    0.7612   45.7049 H       1  ZINC000654382142    0.1300
     48 H48         1.9219    0.4856   46.9030 H       1  ZINC000654382142    0.1300
@<TRIPOS>BOND
     1     1     2    1
     2     1    26    1
     3     1    27    1
     4     1    28    1
     5     2     3    1
     6     3     4    1
     7     3    29    1
     8     3    30    1
     9     4     5    1
    10     4    31    1
    11     4    32    1
    12     5     6    1
    13     5    14   am
    14     6     7    1
    15     6    33    1
    16     6    34    1
    17     7     8    1
    18     7     9    1
    19     7    10    1
    20     9    35    1
    21    10    11    1
    22    10    12    1
    23    10    13    1
    24    14    15    2
    25    14    16   am
    26    16    17    1
    27    16    36    1
    28    17    18    1
    29    17    37    1
    30    17    38    1
    31    18    19    1
    32    18    39    1
    33    18    40    1
    34    19    20    1
    35    19    41    1
    36    19    42    1
    37    20    21    1
    38    20    22   am
    39    21    43    1
    40    21    44    1
    41    21    45    1
    42    22    23    1
    43    22    24    2
    44    22    25    2
    45    23    46    1
    46    23    47    1
    47    23    48    1
@<TRIPOS>SUBSTRUCTURE
     1 ZINC000654382142        1 TEMP              0 ****  ****    0 ROOT


##########                                Name:    ZINC000410354665
##########                DOCK_Rotatable_Bonds:                   7
##########                         Heavy_Atoms:                  29
##########                    Molecular_Weight:             417.889
##########                DOCK_Rotatable_Bonds:                   7
##########                       Formal_Charge:        -3.72529e-08
##########                     HBond_Acceptors:                   7
##########                        HBond_Donors:                   1
##########                         Heavy_Atoms:                  29
##########                          Grid_Score:          -32.015701
##########                     Grid_vdw_energy:          -31.172163
##########                      Grid_es_energy:           -0.843538
##########           Internal_energy_repulsive:           43.616207

@<TRIPOS>MOLECULE
ZINC000410354665
 53 56 1 0 0
SMALL
USER_CHARGES


@<TRIPOS>ATOM
      1 C1         -7.0226   -0.6702   51.6044 C.3     1  ZINC000410354665    0.0200
      2 O2         -7.6735    0.5443   51.2259 O.3     1  ZINC000410354665   -0.3000
      3 C3         -6.8760    1.5924   50.8865 C.ar    1  ZINC000410354665    0.0900
      4 C4         -5.5064    1.4265   50.8255 C.ar    1  ZINC000410354665   -0.1100
      5 C5         -4.6898    2.5056   50.4758 C.ar    1  ZINC000410354665   -0.1400
      6 C6         -3.2253    2.3336   50.4086 C.2     1  ZINC000410354665    0.5700
      7 O7         -2.4995    3.3086   50.3775 O.2     1  ZINC000410354665   -0.5300
      8 N8         -2.6928    1.0959   50.3817 N.am    1  ZINC000410354665   -0.7200
      9 C9         -1.2392    0.9252   50.3168 C.3     1  ZINC000410354665    0.1700
     10 C10        -0.7675    1.1667   48.9060 C.ar    1  ZINC000410354665   -0.1000
     11 C11         0.1865    2.1345   48.6537 C.ar    1  ZINC000410354665   -0.0900
     12 C12         0.6201    2.3606   47.3598 C.ar    1  ZINC000410354665   -0.0300
     13 Cl13        1.8182    3.5772   47.0465 Cl      1  ZINC000410354665   -0.0400
     14 C14         0.0985    1.6151   46.3120 C.ar    1  ZINC000410354665    0.0700
     15 O15         0.5291    1.8538   45.0428 O.3     1  ZINC000410354665   -0.2900
     16 C16         0.2594    0.8383   44.0702 C.3     1  ZINC000410354665    0.0200
     17 C17        -1.2025    0.3986   44.2268 C.3     1  ZINC000410354665    0.0200
     18 O18        -1.3789   -0.1063   45.5549 O.3     1  ZINC000410354665   -0.3000
     19 C19        -0.8578    0.6397   46.5670 C.ar    1  ZINC000410354665    0.0600
     20 C20        -1.2856    0.4161   47.8673 C.ar    1  ZINC000410354665   -0.0900
     21 C21        -5.2625    3.7469   50.1897 C.ar    1  ZINC000410354665   -0.0800
     22 C22        -6.6302    3.9059   50.2529 C.ar    1  ZINC000410354665   -0.1900
     23 C23        -7.4417    2.8330   50.5944 C.ar    1  ZINC000410354665    0.1400
     24 O24        -8.7886    2.9947   50.6553 O.3     1  ZINC000410354665   -0.2900
     25 C25        -9.3010    4.2918   50.3438 C.3     1  ZINC000410354665    0.0700
     26 C26        -9.0293    4.6398   48.8592 C.3     1  ZINC000410354665   -0.1500
     27 C27       -10.1165    5.6995   48.5521 C.3     1  ZINC000410354665   -0.1200
     28 C28       -11.3577    5.2020   49.3214 C.3     1  ZINC000410354665   -0.1200
     29 C29       -10.8391    4.3070   50.4606 C.3     1  ZINC000410354665   -0.1200
     30 H30        -6.4077   -1.0258   50.7777 H       1  ZINC000410354665    0.0600
     31 H31        -6.3918   -0.4885   52.4745 H       1  ZINC000410354665    0.0600
     32 H32        -7.7720   -1.4228   51.8497 H       1  ZINC000410354665    0.1000
     33 H33        -5.0672    0.4652   51.0478 H       1  ZINC000410354665    0.1500
     34 H34        -3.2718    0.3181   50.4053 H       1  ZINC000410354665    0.4000
     35 H35        -0.7592    1.6380   50.9873 H       1  ZINC000410354665    0.0800
     36 H36        -0.9786   -0.0893   50.6183 H       1  ZINC000410354665    0.0900
     37 H37         0.5937    2.7154   49.4681 H       1  ZINC000410354665    0.1500
     38 H38         0.4179    1.2376   43.0684 H       1  ZINC000410354665    0.1300
     39 H39         0.9192   -0.0134   44.2356 H       1  ZINC000410354665    0.0800
     40 H40        -1.8621    1.2516   44.0673 H       1  ZINC000410354665    0.0800
     41 H41        -1.4306   -0.3836   43.5028 H       1  ZINC000410354665    0.1300
     42 H42        -2.0273   -0.3429   48.0681 H       1  ZINC000410354665    0.1400
     43 H43        -4.6336    4.5822   49.9193 H       1  ZINC000410354665    0.1300
     44 H44        -7.0716    4.8665   50.0317 H       1  ZINC000410354665    0.1400
     45 H45        -8.8611    5.0425   51.0004 H       1  ZINC000410354665    0.0800
     46 H46        -8.0321    5.0630   48.7379 H       1  ZINC000410354665    0.0700
     47 H47        -9.1567    3.7612   48.2269 H       1  ZINC000410354665    0.0800
     48 H48        -9.8085    6.6791   48.9174 H       1  ZINC000410354665    0.0700
     49 H49       -10.3207    5.7373   47.4820 H       1  ZINC000410354665    0.0700
     50 H50       -11.9066    6.0493   49.7325 H       1  ZINC000410354665    0.0700
     51 H51       -12.0022    4.6256   48.6576 H       1  ZINC000410354665    0.0700
     52 H52       -11.2321    3.2963   50.3497 H       1  ZINC000410354665    0.0800
     53 H53       -11.1365    4.7199   51.4246 H       1  ZINC000410354665    0.0700
@<TRIPOS>BOND
     1     1     2    1
     2     1    30    1
     3     1    31    1
     4     1    32    1
     5     2     3    1
     6     3    23   ar
     7     3     4   ar
     8     4     5   ar
     9     4    33    1
    10     5     6    1
    11     5    21   ar
    12     6     7    2
    13     6     8   am
    14     8     9    1
    15     8    34    1
    16     9    10    1
    17     9    35    1
    18     9    36    1
    19    10    20   ar
    20    10    11   ar
    21    11    12   ar
    22    11    37    1
    23    12    13    1
    24    12    14   ar
    25    14    19   ar
    26    14    15    1
    27    15    16    1
    28    16    17    1
    29    16    38    1
    30    16    39    1
    31    17    18    1
    32    17    40    1
    33    17    41    1
    34    18    19    1
    35    19    20   ar
    36    20    42    1
    37    21    22   ar
    38    21    43    1
    39    22    23   ar
    40    22    44    1
    41    23    24    1
    42    24    25    1
    43    25    29    1
    44    25    26    1
    45    25    45    1
    46    26    27    1
    47    26    46    1
    48    26    47    1
    49    27    28    1
    50    27    48    1
    51    27    49    1
    52    28    29    1
    53    28    50    1
    54    28    51    1
    55    29    52    1
    56    29    53    1
@<TRIPOS>SUBSTRUCTURE
     1 ZINC000410354665        1 TEMP              0 ****  ****    0 ROOT


##########                                Name:    ZINC001181473921
##########                DOCK_Rotatable_Bonds:                   9
##########                         Heavy_Atoms:                  24
##########                    Molecular_Weight:             357.431
##########                DOCK_Rotatable_Bonds:                   9
##########                       Formal_Charge:        -5.96046e-08
##########                     HBond_Acceptors:                   9
##########                        HBond_Donors:                   4
##########                         Heavy_Atoms:                  24
##########                          Grid_Score:          -31.985344
##########                     Grid_vdw_energy:          -31.684034
##########                      Grid_es_energy:           -0.301309
##########           Internal_energy_repulsive:           15.417319

@<TRIPOS>MOLECULE
ZINC001181473921
 47 48 1 0 0
SMALL
USER_CHARGES


@<TRIPOS>ATOM
      1 C1        -13.4285   -4.6389   56.9240 C.3     1  ZINC001181473921   -0.1300
      2 C2        -13.1715   -3.8975   58.2106 C.2     1  ZINC001181473921    0.1900
      3 C3        -14.0644   -3.9848   59.2196 C.2     1  ZINC001181473921   -0.2400
      4 C4        -13.8291   -3.2942   60.4252 C.2     1  ZINC001181473921    0.2500
      5 O5        -14.7152   -3.3722   61.4467 O.3     1  ZINC001181473921   -0.4600
      6 C6        -12.6796   -2.5361   60.5493 C.2     1  ZINC001181473921   -0.3700
      7 C7        -11.7836   -2.4763   59.4756 C.2     1  ZINC001181473921    0.5300
      8 O8        -10.7636   -1.8114   59.5695 O.2     1  ZINC001181473921   -0.5500
      9 N9        -12.0413   -3.1545   58.3419 N.am    1  ZINC001181473921   -0.5000
     10 C10       -11.0931   -3.0818   57.2274 C.3     1  ZINC001181473921    0.1000
     11 C11       -11.3999   -1.8479   56.3766 C.3     1  ZINC001181473921   -0.1600
     12 C12       -10.1383   -1.0474   56.1793 C.2     1  ZINC001181473921    0.5200
     13 O13        -9.5536   -0.5908   57.1388 O.2     1  ZINC001181473921   -0.5300
     14 N14        -9.6597   -0.8390   54.9367 N.am    1  ZINC001181473921   -0.7200
     15 C15        -8.4343   -0.0593   54.7449 C.3     1  ZINC001181473921    0.1400
     16 H16        -7.6429   -0.4182   55.4030 H       1  ZINC001181473921    0.1000
     17 C17        -8.7009    1.4485   54.9784 C.3     1  ZINC001181473921   -0.1300
     18 C18        -7.5859    2.1574   54.1822 C.3     1  ZINC001181473921   -0.1500
     19 C19        -7.1296    1.1721   53.0920 C.3     1  ZINC001181473921   -0.0800
     20 H20        -6.0738    0.9341   53.2219 H       1  ZINC001181473921    0.0900
     21 C21        -7.3633    1.7781   51.7067 C.3     1  ZINC001181473921   -0.6200
     22 S22        -6.1099    1.1531   50.5539 S.o2    1  ZINC001181473921    2.6100
     23 N23        -6.3390   -0.4869   50.5438 N.am    1  ZINC001181473921   -1.2500
     24 O24        -6.4091    1.5571   49.2248 O.2     1  ZINC001181473921   -0.9600
     25 O25        -4.8068    1.3216   51.0949 O.2     1  ZINC001181473921   -0.9600
     26 C26        -7.9804   -0.1056   53.2647 C.3     1  ZINC001181473921   -0.1200
     27 H27       -12.5785   -5.2835   56.7001 H       1  ZINC001181473921    0.0900
     28 H28       -14.3276   -5.2462   57.0281 H       1  ZINC001181473921    0.1000
     29 H29       -13.5653   -3.9232   56.1134 H       1  ZINC001181473921    0.0900
     30 H30       -14.9566   -4.5821   59.1029 H       1  ZINC001181473921    0.1500
     31 H31       -14.7709   -4.2479   61.8531 H       1  ZINC001181473921    0.4100
     32 H32       -12.4758   -1.9968   61.4626 H       1  ZINC001181473921    0.1500
     33 H33       -10.0780   -3.0106   57.6180 H       1  ZINC001181473921    0.1000
     34 H34       -11.1843   -3.9781   56.6138 H       1  ZINC001181473921    0.1100
     35 H35       -11.7862   -2.1619   55.4069 H       1  ZINC001181473921    0.1100
     36 H36       -12.1444   -1.2334   56.8827 H       1  ZINC001181473921    0.1000
     37 H37       -10.1267   -1.2051   54.1695 H       1  ZINC001181473921    0.4000
     38 H38        -9.6814    1.7269   54.5923 H       1  ZINC001181473921    0.0700
     39 H39        -8.6249    1.6896   56.0387 H       1  ZINC001181473921    0.0800
     40 H40        -7.9745    3.0671   53.7244 H       1  ZINC001181473921    0.0900
     41 H41        -6.7515    2.3978   54.8411 H       1  ZINC001181473921    0.0800
     42 H42        -8.3553    1.4996   51.3509 H       1  ZINC001181473921    0.1400
     43 H43        -7.2910    2.8640   51.7683 H       1  ZINC001181473921    0.1400
     44 H44        -7.1923   -0.8557   50.2669 H       1  ZINC001181473921    0.4100
     45 H45        -5.6198   -1.0788   50.8146 H       1  ZINC001181473921    0.4200
     46 H46        -7.3784   -0.9936   53.0727 H       1  ZINC001181473921    0.0800
     47 H47        -8.8460   -0.0798   52.6027 H       1  ZINC001181473921    0.0800
@<TRIPOS>BOND
     1     1     2    1
     2     1    27    1
     3     1    28    1
     4     1    29    1
     5     2     9    1
     6     2     3    2
     7     3     4    1
     8     3    30    1
     9     4     5    1
    10     4     6    2
    11     5    31    1
    12     6     7    1
    13     6    32    1
    14     7     8    2
    15     7     9   am
    16     9    10    1
    17    10    11    1
    18    10    33    1
    19    10    34    1
    20    11    12    1
    21    11    35    1
    22    11    36    1
    23    12    13    2
    24    12    14   am
    25    14    15    1
    26    14    37    1
    27    15    16    1
    28    15    26    1
    29    15    17    1
    30    17    18    1
    31    17    38    1
    32    17    39    1
    33    18    19    1
    34    18    40    1
    35    18    41    1
    36    19    20    1
    37    19    21    1
    38    19    26    1
    39    21    22    1
    40    21    42    1
    41    21    43    1
    42    22    23   am
    43    22    24    2
    44    22    25    2
    45    23    44    1
    46    23    45    1
    47    26    46    1
    48    26    47    1
@<TRIPOS>SUBSTRUCTURE
     1 ZINC001181473921        1 TEMP              0 ****  ****    0 ROOT


##########                                Name:    ZINC000050607728
##########                DOCK_Rotatable_Bonds:                  10
##########                         Heavy_Atoms:                  31
##########                    Molecular_Weight:             416.476
##########                DOCK_Rotatable_Bonds:                  10
##########                       Formal_Charge:          -0.0199995
##########                     HBond_Acceptors:                   6
##########                        HBond_Donors:                   1
##########                         Heavy_Atoms:                  31
##########                          Grid_Score:          -31.967867
##########                     Grid_vdw_energy:          -32.255726
##########                      Grid_es_energy:            0.287858
##########           Internal_energy_repulsive:           13.323845

@<TRIPOS>MOLECULE
ZINC000050607728
 55 57 1 0 0
SMALL
USER_CHARGES


@<TRIPOS>ATOM
      1 C1        -14.6734   -0.3078   59.0096 C.3     1  ZINC000050607728    0.0800
      2 N2        -14.8865   -0.8346   60.3599 N.am    1  ZINC000050607728   -0.6200
      3 C3        -15.5160    0.0044   61.3826 C.3     1  ZINC000050607728    0.0700
      4 C4        -14.5033   -2.0911   60.6613 C.2     1  ZINC000050607728    0.5600
      5 O5        -14.6800   -2.5282   61.7817 O.2     1  ZINC000050607728   -0.5300
      6 C6        -13.8680   -2.9378   59.6293 C.ar    1  ZINC000050607728   -0.1400
      7 C7        -14.6522   -3.7501   58.8089 C.ar    1  ZINC000050607728   -0.0800
      8 C8        -14.0531   -4.5375   57.8473 C.ar    1  ZINC000050607728   -0.1300
      9 C9        -12.6781   -4.5236   57.6958 C.ar    1  ZINC000050607728   -0.0700
     10 C10       -11.8946   -3.7210   58.5064 C.ar    1  ZINC000050607728   -0.1100
     11 C11       -10.3974   -3.7126   58.3346 C.3     1  ZINC000050607728    0.1100
     12 O12        -9.9350   -2.3443   58.1863 O.3     1  ZINC000050607728   -0.3400
     13 C13        -9.9126   -1.8400   56.9425 C.2     1  ZINC000050607728    0.4700
     14 O14       -10.4201   -2.4525   56.0331 O.2     1  ZINC000050607728   -0.5000
     15 C15        -9.2544   -0.5099   56.6805 C.3     1  ZINC000050607728    0.2000
     16 H16        -8.4549   -0.3513   57.4042 H       1  ZINC000050607728    0.1400
     17 N17        -8.6962   -0.4997   55.3260 N.am    1  ZINC000050607728   -0.7100
     18 C18        -7.6307    0.2752   55.0421 C.2     1  ZINC000050607728    0.5700
     19 O19        -7.1318    0.9644   55.9102 O.2     1  ZINC000050607728   -0.5200
     20 C20        -7.0685    0.2868   53.6748 C.ar    1  ZINC000050607728   -0.1400
     21 C21        -7.5131   -0.6356   52.7262 C.ar    1  ZINC000050607728   -0.0800
     22 C22        -6.9847   -0.6190   51.4520 C.ar    1  ZINC000050607728   -0.1300
     23 C23        -6.0160    0.3089   51.1135 C.ar    1  ZINC000050607728   -0.0900
     24 C24        -5.5705    1.2257   52.0491 C.ar    1  ZINC000050607728   -0.1300
     25 C25        -6.0950    1.2239   53.3251 C.ar    1  ZINC000050607728   -0.0600
     26 C26       -10.2758    0.5904   56.8112 C.ar    1  ZINC000050607728   -0.1000
     27 C27       -11.0668    0.9313   55.7301 C.ar    1  ZINC000050607728   -0.1000
     28 C28       -12.0037    1.9406   55.8500 C.ar    1  ZINC000050607728   -0.1200
     29 C29       -12.1498    2.6088   57.0512 C.ar    1  ZINC000050607728   -0.1100
     30 C30       -11.3593    2.2675   58.1327 C.ar    1  ZINC000050607728   -0.1200
     31 C31       -10.4254    1.2552   58.0140 C.ar    1  ZINC000050607728   -0.0800
     32 C32       -12.4816   -2.9243   59.4673 C.ar    1  ZINC000050607728   -0.0400
     33 H33       -13.6962    0.1724   58.9569 H       1  ZINC000050607728    0.0600
     34 H34       -14.7158   -1.1253   58.2897 H       1  ZINC000050607728    0.0800
     35 H35       -15.4495    0.4214   58.7774 H       1  ZINC000050607728    0.0700
     36 H36       -16.6000   -0.0718   61.2983 H       1  ZINC000050607728    0.0600
     37 H37       -15.2039   -0.3320   62.3713 H       1  ZINC000050607728    0.0800
     38 H38       -15.2124    1.0415   61.2391 H       1  ZINC000050607728    0.0700
     39 H39       -15.7258   -3.7623   58.9266 H       1  ZINC000050607728    0.1400
     40 H40       -14.6588   -5.1665   57.2117 H       1  ZINC000050607728    0.1400
     41 H41       -12.2140   -5.1422   56.9420 H       1  ZINC000050607728    0.1300
     42 H42        -9.9287   -4.1617   59.2102 H       1  ZINC000050607728    0.0900
     43 H43       -10.1305   -4.2847   57.4460 H       1  ZINC000050607728    0.0900
     44 H44        -9.0936   -1.0505   54.6335 H       1  ZINC000050607728    0.4100
     45 H45        -8.2688   -1.3609   52.9894 H       1  ZINC000050607728    0.1300
     46 H46        -7.3279   -1.3321   50.7171 H       1  ZINC000050607728    0.1300
     47 H47        -5.6053    0.3175   50.1146 H       1  ZINC000050607728    0.1300
     48 H48        -4.8137    1.9472   51.7787 H       1  ZINC000050607728    0.1300
     49 H49        -5.7467    1.9403   54.0544 H       1  ZINC000050607728    0.1400
     50 H50       -10.9527    0.4091   54.7916 H       1  ZINC000050607728    0.1200
     51 H51       -12.6213    2.2073   55.0051 H       1  ZINC000050607728    0.1200
     52 H52       -12.8813    3.3979   57.1447 H       1  ZINC000050607728    0.1200
     53 H53       -11.4733    2.7898   59.0711 H       1  ZINC000050607728    0.1300
     54 H54        -9.8079    0.9885   58.8589 H       1  ZINC000050607728    0.1300
     55 H55       -11.8690   -2.2980   60.0990 H       1  ZINC000050607728    0.1300
@<TRIPOS>BOND
     1     1     2    1
     2     1    33    1
     3     1    34    1
     4     1    35    1
     5     2     3    1
     6     2     4   am
     7     3    36    1
     8     3    37    1
     9     3    38    1
    10     4     5    2
    11     4     6    1
    12     6    32   ar
    13     6     7   ar
    14     7     8   ar
    15     7    39    1
    16     8     9   ar
    17     8    40    1
    18     9    10   ar
    19     9    41    1
    20    10    11    1
    21    10    32   ar
    22    11    12    1
    23    11    42    1
    24    11    43    1
    25    12    13    1
    26    13    14    2
    27    13    15    1
    28    15    16    1
    29    15    17    1
    30    15    26    1
    31    17    18   am
    32    17    44    1
    33    18    19    2
    34    18    20    1
    35    20    25   ar
    36    20    21   ar
    37    21    22   ar
    38    21    45    1
    39    22    23   ar
    40    22    46    1
    41    23    24   ar
    42    23    47    1
    43    24    25   ar
    44    24    48    1
    45    25    49    1
    46    26    31   ar
    47    26    27   ar
    48    27    28   ar
    49    27    50    1
    50    28    29   ar
    51    28    51    1
    52    29    30   ar
    53    29    52    1
    54    30    31   ar
    55    30    53    1
    56    31    54    1
    57    32    55    1
@<TRIPOS>SUBSTRUCTURE
     1 ZINC000050607728        1 TEMP              0 ****  ****    0 ROOT


##########                                Name:    ZINC000492313853
##########                DOCK_Rotatable_Bonds:                   8
##########                         Heavy_Atoms:                  30
##########                    Molecular_Weight:             418.422
##########                DOCK_Rotatable_Bonds:                   8
##########                       Formal_Charge:          -0.0100008
##########                     HBond_Acceptors:                  10
##########                        HBond_Donors:                   2
##########                         Heavy_Atoms:                  30
##########                          Grid_Score:          -31.964167
##########                     Grid_vdw_energy:          -31.343229
##########                      Grid_es_energy:           -0.620938
##########           Internal_energy_repulsive:           14.675561

@<TRIPOS>MOLECULE
ZINC000492313853
 51 53 1 0 0
SMALL
USER_CHARGES


@<TRIPOS>ATOM
      1 C1         -2.9516    2.4875   48.0345 C.3     1  ZINC000492313853    0.0900
      2 N2         -2.8798    2.2830   49.4834 N.pl3   1  ZINC000492313853   -0.6200
      3 C3         -1.5776    2.1441   50.1399 C.3     1  ZINC000492313853    0.1000
      4 C4         -4.0474    2.2209   50.2353 C.ar    1  ZINC000492313853    0.4100
      5 C5         -5.2799    2.1778   49.5919 C.ar    1  ZINC000492313853   -0.2400
      6 C6         -6.4338    2.1156   50.3525 C.ar    1  ZINC000492313853   -0.0100
      7 C7         -6.3157    2.0986   51.7357 C.ar    1  ZINC000492313853   -0.2300
      8 C8         -7.5456    2.0308   52.6039 C.3     1  ZINC000492313853    0.2000
      9 N9         -7.2028    1.4177   53.8895 N.am    1  ZINC000492313853   -0.7300
     10 C10        -8.1718    0.8935   54.6658 C.2     1  ZINC000492313853    0.7100
     11 O11        -9.3304    0.9282   54.2986 O.2     1  ZINC000492313853   -0.5600
     12 N12        -7.8565    0.3309   55.8493 N.am    1  ZINC000492313853   -0.6600
     13 C13        -8.8598   -0.2102   56.6537 C.2     1  ZINC000492313853    0.3300
     14 C14        -9.7494   -1.1702   56.2884 C.2     1  ZINC000492313853   -0.2600
     15 C15       -10.5835   -1.4261   57.3928 C.2     1  ZINC000492313853    0.1200
     16 C16       -11.6974   -2.4060   57.4341 C.ar    1  ZINC000492313853   -0.0100
     17 C17       -11.7818   -3.4095   56.4715 C.ar    1  ZINC000492313853   -0.0600
     18 C18       -12.8198   -4.3186   56.5149 C.ar    1  ZINC000492313853   -0.1200
     19 C19       -13.7747   -4.2345   57.5117 C.ar    1  ZINC000492313853   -0.0700
     20 C20       -13.6957   -3.2401   58.4703 C.ar    1  ZINC000492313853   -0.1900
     21 C21       -14.7396   -3.1550   59.5537 C.3     1  ZINC000492313853    0.5100
     22 F22       -15.3620   -1.9030   59.5044 F       1  ZINC000492313853   -0.1800
     23 F23       -15.6950   -4.1585   59.3606 F       1  ZINC000492313853   -0.1800
     24 F24       -14.1311   -3.3243   60.8020 F       1  ZINC000492313853   -0.1800
     25 C25       -12.6594   -2.3292   58.4393 C.ar    1  ZINC000492313853   -0.0400
     26 N26       -10.2044   -0.6458   58.3824 N.2     1  ZINC000492313853   -0.2700
     27 N27        -9.1191    0.1238   57.9450 N.pl3   1  ZINC000492313853   -0.3900
     28 C28        -8.3960    1.1213   58.7378 C.3     1  ZINC000492313853    0.1000
     29 C29        -5.0600    2.1437   52.3078 C.ar    1  ZINC000492313853    0.1700
     30 N30        -3.9760    2.1977   51.5574 N.ar    1  ZINC000492313853   -0.5400
     31 H31        -3.0065    1.5210   47.5334 H       1  ZINC000492313853    0.0600
     32 H32        -3.8392    3.0726   47.7936 H       1  ZINC000492313853    0.0700
     33 H33        -2.0625    3.0211   47.6984 H       1  ZINC000492313853    0.0700
     34 H34        -0.7853    2.2190   49.3950 H       1  ZINC000492313853    0.0700
     35 H35        -1.4571    2.9359   50.8793 H       1  ZINC000492313853    0.0600
     36 H36        -1.5213    1.1741   50.6339 H       1  ZINC000492313853    0.0600
     37 H37        -5.3353    2.1930   48.5135 H       1  ZINC000492313853    0.1300
     38 H38        -7.4048    2.0815   49.8808 H       1  ZINC000492313853    0.1400
     39 H39        -7.9276    3.0378   52.7720 H       1  ZINC000492313853    0.0800
     40 H40        -8.3083    1.4311   52.1072 H       1  ZINC000492313853    0.0800
     41 H41        -6.2784    1.3890   54.1819 H       1  ZINC000492313853    0.4000
     42 H42        -6.9321    0.3022   56.1417 H       1  ZINC000492313853    0.4100
     43 H43        -9.8067   -1.6505   55.3228 H       1  ZINC000492313853    0.1800
     44 H44       -11.0369   -3.4758   55.6924 H       1  ZINC000492313853    0.1400
     45 H45       -12.8864   -5.0967   55.7690 H       1  ZINC000492313853    0.1400
     46 H46       -14.5852   -4.9476   57.5420 H       1  ZINC000492313853    0.1400
     47 H47       -12.5986   -1.5533   59.1881 H       1  ZINC000492313853    0.1400
     48 H48        -7.5693    0.6403   59.2604 H       1  ZINC000492313853    0.0800
     49 H49        -8.0068    1.8970   58.0783 H       1  ZINC000492313853    0.0800
     50 H50        -9.0741    1.5687   59.4645 H       1  ZINC000492313853    0.1000
     51 H51        -4.9634    2.1307   53.3834 H       1  ZINC000492313853    0.1600
@<TRIPOS>BOND
     1     1     2    1
     2     1    31    1
     3     1    32    1
     4     1    33    1
     5     2     3    1
     6     2     4    1
     7     3    34    1
     8     3    35    1
     9     3    36    1
    10     4    30   ar
    11     4     5   ar
    12     5     6   ar
    13     5    37    1
    14     6     7   ar
    15     6    38    1
    16     7     8    1
    17     7    29   ar
    18     8     9    1
    19     8    39    1
    20     8    40    1
    21     9    10   am
    22     9    41    1
    23    10    11    2
    24    10    12   am
    25    12    13    1
    26    12    42    1
    27    13    27    1
    28    13    14    2
    29    14    15    1
    30    14    43    1
    31    15    16    1
    32    15    26    2
    33    16    25   ar
    34    16    17   ar
    35    17    18   ar
    36    17    44    1
    37    18    19   ar
    38    18    45    1
    39    19    20   ar
    40    19    46    1
    41    20    21    1
    42    20    25   ar
    43    21    22    1
    44    21    23    1
    45    21    24    1
    46    25    47    1
    47    26    27    1
    48    27    28    1
    49    28    48    1
    50    28    49    1
    51    28    50    1
    52    29    30   ar
    53    29    51    1
@<TRIPOS>SUBSTRUCTURE
     1 ZINC000492313853        1 TEMP              0 ****  ****    0 ROOT


##########                                Name:    ZINC000420486261
##########                DOCK_Rotatable_Bonds:                   7
##########                         Heavy_Atoms:                  26
##########                    Molecular_Weight:             353.378
##########                DOCK_Rotatable_Bonds:                   7
##########                       Formal_Charge:        -2.98023e-08
##########                     HBond_Acceptors:                   7
##########                        HBond_Donors:                   0
##########                         Heavy_Atoms:                  26
##########                          Grid_Score:          -31.955778
##########                     Grid_vdw_energy:          -31.243649
##########                      Grid_es_energy:           -0.712130
##########           Internal_energy_repulsive:            7.849248

@<TRIPOS>MOLECULE
ZINC000420486261
 45 47 1 0 0
SMALL
USER_CHARGES


@<TRIPOS>ATOM
      1 C1         -5.5893    0.6486   50.2466 C.3     1  ZINC000420486261    0.0400
      2 O2         -6.2365    0.9918   51.5003 O.3     1  ZINC000420486261   -0.3500
      3 C3         -6.9938    0.0398   52.0780 C.2     1  ZINC000420486261    0.5100
      4 O4         -7.1115   -1.0467   51.5488 O.2     1  ZINC000420486261   -0.4900
      5 C5         -7.6831    0.3181   53.3584 C.ar    1  ZINC000420486261   -0.0700
      6 C6         -7.5198    1.5452   54.0099 C.ar    1  ZINC000420486261   -0.0900
      7 C7         -8.1810    1.7686   55.2051 C.ar    1  ZINC000420486261    0.1100
      8 N8         -8.9565    0.8471   55.7339 N.ar    1  ZINC000420486261   -0.4200
      9 C9         -9.1427   -0.3319   55.1534 C.ar    1  ZINC000420486261    0.1900
     10 C10       -10.0269   -1.3317   55.7930 C.2     1  ZINC000420486261    0.2200
     11 N11       -10.8174   -1.1321   56.8295 N.2     1  ZINC000420486261   -0.4300
     12 C12       -11.4238   -2.3167   57.0547 C.2     1  ZINC000420486261    0.2200
     13 C13       -12.4132   -2.6087   58.1204 C.ar    1  ZINC000420486261   -0.0600
     14 C14       -13.5675   -3.3299   57.8249 C.ar    1  ZINC000420486261   -0.0300
     15 C15       -14.4851   -3.5991   58.8201 C.ar    1  ZINC000420486261   -0.1600
     16 C16       -14.2630   -3.1550   60.1117 C.ar    1  ZINC000420486261   -0.0600
     17 C17       -13.1213   -2.4386   60.4161 C.ar    1  ZINC000420486261   -0.2200
     18 C18       -12.1885   -2.1660   59.4278 C.ar    1  ZINC000420486261    0.1700
     19 O19       -11.0660   -1.4622   59.7256 O.3     1  ZINC000420486261   -0.2900
     20 C20       -10.0495   -2.1439   60.4633 C.3     1  ZINC000420486261    0.0600
     21 C21        -8.9990   -1.1363   60.9347 C.3     1  ZINC000420486261   -0.0900
     22 C22        -8.4456   -0.3746   59.7287 C.3     1  ZINC000420486261   -0.1500
     23 C23        -9.6416   -0.1485   61.9106 C.3     1  ZINC000420486261   -0.1500
     24 N24       -10.9777   -3.1600   56.1585 N.2     1  ZINC000420486261   -0.3400
     25 O25       -10.1816   -2.6128   55.4253 O.3     1  ZINC000420486261    0.1000
     26 C26        -8.5187   -0.6358   53.9453 C.ar    1  ZINC000420486261   -0.0700
     27 H27        -5.0121    1.5017   49.8901 H       1  ZINC000420486261    0.1100
     28 H28        -4.9241   -0.2009   50.4016 H       1  ZINC000420486261    0.0700
     29 H29        -6.3460    0.3872   49.5068 H       1  ZINC000420486261    0.0700
     30 H30        -6.8850    2.3090   53.5856 H       1  ZINC000420486261    0.1600
     31 H31        -8.0580    2.7144   55.7117 H       1  ZINC000420486261    0.1800
     32 H32       -13.7445   -3.6779   56.8179 H       1  ZINC000420486261    0.1400
     33 H33       -15.3800   -4.1581   58.5898 H       1  ZINC000420486261    0.1300
     34 H34       -14.9855   -3.3689   60.8853 H       1  ZINC000420486261    0.1300
     35 H35       -12.9533   -2.0946   61.4259 H       1  ZINC000420486261    0.1400
     36 H36       -10.4957   -2.6350   61.3280 H       1  ZINC000420486261    0.0600
     37 H37        -9.5765   -2.8904   59.8254 H       1  ZINC000420486261    0.0600
     38 H38        -8.1873   -1.6648   61.4345 H       1  ZINC000420486261    0.0800
     39 H39        -9.2574    0.1538   59.2290 H       1  ZINC000420486261    0.0600
     40 H40        -7.6972    0.3431   60.0645 H       1  ZINC000420486261    0.0700
     41 H41        -7.9878   -1.0784   59.0335 H       1  ZINC000420486261    0.0600
     42 H42       -10.4534    0.3800   61.4109 H       1  ZINC000420486261    0.0500
     43 H43       -10.0359   -0.6911   62.7698 H       1  ZINC000420486261    0.0600
     44 H44        -8.8932    0.5694   62.2465 H       1  ZINC000420486261    0.0600
     45 H45        -8.6718   -1.5956   53.4744 H       1  ZINC000420486261    0.1600
@<TRIPOS>BOND
     1     1     2    1
     2     1    27    1
     3     1    28    1
     4     1    29    1
     5     2     3    1
     6     3     4    2
     7     3     5    1
     8     5    26   ar
     9     5     6   ar
    10     6     7   ar
    11     6    30    1
    12     7     8   ar
    13     7    31    1
    14     8     9   ar
    15     9    10    1
    16     9    26   ar
    17    10    25    1
    18    10    11    2
    19    11    12    1
    20    12    13    1
    21    12    24    2
    22    13    18   ar
    23    13    14   ar
    24    14    15   ar
    25    14    32    1
    26    15    16   ar
    27    15    33    1
    28    16    17   ar
    29    16    34    1
    30    17    18   ar
    31    17    35    1
    32    18    19    1
    33    19    20    1
    34    20    21    1
    35    20    36    1
    36    20    37    1
    37    21    22    1
    38    21    23    1
    39    21    38    1
    40    22    39    1
    41    22    40    1
    42    22    41    1
    43    23    42    1
    44    23    43    1
    45    23    44    1
    46    24    25    1
    47    26    45    1
@<TRIPOS>SUBSTRUCTURE
     1 ZINC000420486261        1 TEMP              0 ****  ****    0 ROOT


##########                                Name:    ZINC000499369364
##########                DOCK_Rotatable_Bonds:                   9
##########                         Heavy_Atoms:                  25
##########                    Molecular_Weight:             384.527
##########                DOCK_Rotatable_Bonds:                   9
##########                       Formal_Charge:        -5.88596e-07
##########                     HBond_Acceptors:                  10
##########                        HBond_Donors:                   1
##########                         Heavy_Atoms:                  25
##########                          Grid_Score:          -31.904016
##########                     Grid_vdw_energy:          -31.562029
##########                      Grid_es_energy:           -0.341988
##########           Internal_energy_repulsive:           19.047455

@<TRIPOS>MOLECULE
ZINC000499369364
 49 51 1 0 0
SMALL
USER_CHARGES


@<TRIPOS>ATOM
      1 C1         -7.6451    2.8681   51.4288 C.3     1  ZINC000499369364   -0.1500
      2 C2         -6.7813    1.6099   51.5383 C.3     1  ZINC000499369364   -0.1000
      3 C3         -5.5997    1.8822   52.4713 C.3     1  ZINC000499369364   -0.1500
      4 C4         -7.6216    0.4619   52.1011 C.3     1  ZINC000499369364    0.1500
      5 H5         -8.6497    0.5591   51.7523 H       1  ZINC000499369364    0.0900
      6 C6         -7.0455   -0.8730   51.6248 C.3     1  ZINC000499369364   -0.1700
      7 N7         -7.5960    0.5102   53.5651 N.am    1  ZINC000499369364   -0.7200
      8 C8         -8.7512    0.5514   54.2583 C.2     1  ZINC000499369364    0.5100
      9 O9         -9.8118    0.5469   53.6702 O.2     1  ZINC000499369364   -0.5100
     10 C10        -8.7249    0.6029   55.7642 C.3     1  ZINC000499369364    0.1200
     11 H11        -7.8401    0.0727   56.1166 H       1  ZINC000499369364    0.1200
     12 C12        -8.6292    2.0801   56.2092 C.3     1  ZINC000499369364   -0.0800
     13 S13       -10.3932    2.4618   56.5778 S.3     1  ZINC000499369364   -0.2400
     14 C14       -10.7778    0.7507   57.1368 C.3     1  ZINC000499369364    0.1400
     15 N15        -9.9088   -0.0705   56.2761 N.am    1  ZINC000499369364   -0.6000
     16 C16       -10.1874   -1.3564   55.9843 C.2     1  ZINC000499369364    0.5600
     17 O17        -9.4402   -1.9922   55.2714 O.2     1  ZINC000499369364   -0.5000
     18 C18       -11.4276   -2.0043   56.5441 C.3     1  ZINC000499369364   -0.1500
     19 S19       -10.9980   -3.6090   57.2627 S.3     1  ZINC000499369364    0.1300
     20 C20       -12.6094   -4.2244   57.6224 C.2     1  ZINC000499369364    0.2000
     21 N21       -13.1873   -5.2704   57.0726 N.2     1  ZINC000499369364   -0.3400
     22 N22       -14.3622   -5.4438   57.5613 N.2     1  ZINC000499369364   -0.0300
     23 N23       -14.6187   -4.5392   58.4431 N.2     1  ZINC000499369364   -0.0800
     24 N24       -13.4838   -3.7131   58.5209 N.pl3   1  ZINC000499369364   -0.3300
     25 C25       -13.2918   -2.5442   59.3828 C.3     1  ZINC000499369364    0.0500
     26 C26       -13.6631   -2.6873   60.8603 C.3     1  ZINC000499369364   -0.1500
     27 C27       -12.1922   -2.6218   60.4439 C.3     1  ZINC000499369364   -0.1600
     28 H28        -7.0465    3.6860   51.0279 H       1  ZINC000499369364    0.0600
     29 H29        -8.4869    2.6741   50.7642 H       1  ZINC000499369364    0.0600
     30 H30        -8.0173    3.1404   52.4165 H       1  ZINC000499369364    0.0600
     31 H31        -6.4091    1.3377   50.5506 H       1  ZINC000499369364    0.0800
     32 H32        -5.0011    2.7001   52.0704 H       1  ZINC000499369364    0.0600
     33 H33        -5.9718    2.1545   53.4590 H       1  ZINC000499369364    0.0600
     34 H34        -4.9844    0.9858   52.5494 H       1  ZINC000499369364    0.0500
     35 H35        -6.0174   -0.9702   51.9736 H       1  ZINC000499369364    0.0600
     36 H36        -7.6441   -1.6909   52.0258 H       1  ZINC000499369364    0.0600
     37 H37        -7.0644   -0.9090   50.5355 H       1  ZINC000499369364    0.0700
     38 H38        -6.7477    0.5126   54.0356 H       1  ZINC000499369364    0.4000
     39 H39        -8.0120    2.1809   57.1020 H       1  ZINC000499369364    0.1200
     40 H40        -8.2529    2.7086   55.4021 H       1  ZINC000499369364    0.1300
     41 H41       -10.5189    0.6198   58.1874 H       1  ZINC000499369364    0.1100
     42 H42       -11.8278    0.5142   56.9638 H       1  ZINC000499369364    0.1200
     43 H43       -11.8558   -1.3638   57.3152 H       1  ZINC000499369364    0.1300
     44 H44       -12.1551   -2.1470   55.7450 H       1  ZINC000499369364    0.1300
     45 H45       -13.4683   -1.5778   58.9106 H       1  ZINC000499369364    0.1600
     46 H46       -14.0840   -1.8149   61.3602 H       1  ZINC000499369364    0.1200
     47 H47       -14.0501   -3.6511   61.1908 H       1  ZINC000499369364    0.1200
     48 H48       -11.6117   -3.5425   60.5006 H       1  ZINC000499369364    0.1100
     49 H49       -11.6455   -1.7063   60.6699 H       1  ZINC000499369364    0.1200
@<TRIPOS>BOND
     1     1     2    1
     2     1    28    1
     3     1    29    1
     4     1    30    1
     5     2     3    1
     6     2     4    1
     7     2    31    1
     8     3    32    1
     9     3    33    1
    10     3    34    1
    11     4     5    1
    12     4     6    1
    13     4     7    1
    14     6    35    1
    15     6    36    1
    16     6    37    1
    17     7     8   am
    18     7    38    1
    19     8     9    2
    20     8    10    1
    21    10    11    1
    22    10    15    1
    23    10    12    1
    24    12    13    1
    25    12    39    1
    26    12    40    1
    27    13    14    1
    28    14    15    1
    29    14    41    1
    30    14    42    1
    31    15    16   am
    32    16    17    2
    33    16    18    1
    34    18    19    1
    35    18    43    1
    36    18    44    1
    37    19    20    1
    38    20    24    1
    39    20    21    2
    40    21    22    1
    41    22    23    2
    42    23    24    1
    43    24    25    1
    44    25    27    1
    45    25    26    1
    46    25    45    1
    47    26    27    1
    48    26    46    1
    49    26    47    1
    50    27    48    1
    51    27    49    1
@<TRIPOS>SUBSTRUCTURE
     1 ZINC000499369364        1 TEMP              0 ****  ****    0 ROOT


##########                                Name:    ZINC000751548479
##########                DOCK_Rotatable_Bonds:                   9
##########                         Heavy_Atoms:                  27
##########                    Molecular_Weight:             389.407
##########                DOCK_Rotatable_Bonds:                   9
##########                       Formal_Charge:           0.0199995
##########                     HBond_Acceptors:                   9
##########                        HBond_Donors:                   2
##########                         Heavy_Atoms:                  27
##########                          Grid_Score:          -31.892925
##########                     Grid_vdw_energy:          -29.466063
##########                      Grid_es_energy:           -2.426863
##########           Internal_energy_repulsive:            6.871421

@<TRIPOS>MOLECULE
ZINC000751548479
 43 44 1 0 0
SMALL
USER_CHARGES


@<TRIPOS>ATOM
      1 C1         -9.3023   -0.3835   62.7911 C.3     1  ZINC000751548479   -0.1600
      2 C2         -8.4742   -0.5517   61.5156 C.3     1  ZINC000751548479    0.0800
      3 O3         -9.1583    0.0887   60.4065 O.3     1  ZINC000751548479   -0.3600
      4 C4         -8.4999    0.1462   59.2333 C.2     1  ZINC000751548479    0.6500
      5 O5         -7.4827   -0.4994   59.0753 O.2     1  ZINC000751548479   -0.5400
      6 N6         -8.9692    0.9199   58.2345 N.am    1  ZINC000751548479   -0.6500
      7 C7         -8.2864    0.9795   57.0178 C.ar    1  ZINC000751548479    0.2000
      8 C8         -7.3113    1.9451   56.8142 C.ar    1  ZINC000751548479   -0.1000
      9 C9         -6.6355    2.0055   55.6119 C.ar    1  ZINC000751548479   -0.1000
     10 C10        -6.9258    1.1006   54.5966 C.ar    1  ZINC000751548479    0.1300
     11 N11        -6.2356    1.1701   53.3813 N.am    1  ZINC000751548479   -1.0500
     12 S12        -7.0344    1.6110   51.9994 S.o2    1  ZINC000751548479    2.6800
     13 O13        -7.9635    0.5718   51.7240 O.2     1  ZINC000751548479   -0.9500
     14 O14        -7.4158    2.9689   52.1722 O.2     1  ZINC000751548479   -0.9400
     15 C15        -5.8585    1.5877   50.6873 C.2     1  ZINC000751548479   -0.7500
     16 C16        -4.5696    1.7548   50.9493 C.2     1  ZINC000751548479    0.0700
     17 C17        -3.5834    1.7370   49.8486 C.ar    1  ZINC000751548479   -0.1100
     18 C18        -2.3217    1.1749   50.0480 C.ar    1  ZINC000751548479   -0.0600
     19 C19        -1.4052    1.1605   49.0173 C.ar    1  ZINC000751548479   -0.1600
     20 C20        -1.7352    1.7032   47.7857 C.ar    1  ZINC000751548479    0.1200
     21 F21        -0.8338    1.6869   46.7796 F       1  ZINC000751548479   -0.1300
     22 C22        -2.9868    2.2621   47.5823 C.ar    1  ZINC000751548479   -0.1600
     23 C23        -3.9126    2.2770   48.6046 C.ar    1  ZINC000751548479   -0.0500
     24 C24        -7.8960    0.1305   54.7854 C.ar    1  ZINC000751548479   -0.0600
     25 C25        -8.5806    0.0597   56.0003 C.ar    1  ZINC000751548479   -0.0300
     26 C26        -9.5848   -0.9408   56.2033 C.1     1  ZINC000751548479    0.2500
     27 N27       -10.3813   -1.7346   56.3642 N.1     1  ZINC000751548479   -0.4000
     28 H28       -10.2804   -0.8442   62.6527 H       1  ZINC000751548479    0.0700
     29 H29        -8.7887   -0.8644   63.6237 H       1  ZINC000751548479    0.0900
     30 H30        -9.4276    0.6778   63.0057 H       1  ZINC000751548479    0.0700
     31 H31        -7.4961   -0.0911   61.6541 H       1  ZINC000751548479    0.0800
     32 H32        -8.3489   -1.6130   61.3010 H       1  ZINC000751548479    0.0800
     33 H33        -9.7811    1.4352   58.3607 H       1  ZINC000751548479    0.4200
     34 H34        -7.0807    2.6515   57.5979 H       1  ZINC000751548479    0.1600
     35 H35        -5.8776    2.7596   55.4590 H       1  ZINC000751548479    0.1700
     36 H36        -5.2892    0.9599   53.3484 H       1  ZINC000751548479    0.4300
     37 H37        -6.1876    1.4373   49.6698 H       1  ZINC000751548479    0.1700
     38 H38        -4.2403    1.9039   51.9670 H       1  ZINC000751548479    0.1500
     39 H39        -2.0633    0.7523   51.0077 H       1  ZINC000751548479    0.1400
     40 H40        -0.4285    0.7258   49.1706 H       1  ZINC000751548479    0.1400
     41 H41        -3.2391    2.6835   46.6205 H       1  ZINC000751548479    0.1400
     42 H42        -4.8878    2.7126   48.4451 H       1  ZINC000751548479    0.1400
     43 H43        -8.1203   -0.5715   53.9959 H       1  ZINC000751548479    0.1500
@<TRIPOS>BOND
     1     1     2    1
     2     1    28    1
     3     1    29    1
     4     1    30    1
     5     2     3    1
     6     2    31    1
     7     2    32    1
     8     3     4    1
     9     4     5    2
    10     4     6   am
    11     6     7    1
    12     6    33    1
    13     7    25   ar
    14     7     8   ar
    15     8     9   ar
    16     8    34    1
    17     9    10   ar
    18     9    35    1
    19    10    11    1
    20    10    24   ar
    21    11    12   am
    22    11    36    1
    23    12    13    2
    24    12    14    2
    25    12    15    1
    26    15    16    2
    27    15    37    1
    28    16    17    1
    29    16    38    1
    30    17    23   ar
    31    17    18   ar
    32    18    19   ar
    33    18    39    1
    34    19    20   ar
    35    19    40    1
    36    20    21    1
    37    20    22   ar
    38    22    23   ar
    39    22    41    1
    40    23    42    1
    41    24    25   ar
    42    24    43    1
    43    25    26    1
    44    26    27    3
@<TRIPOS>SUBSTRUCTURE
     1 ZINC000751548479        1 TEMP              0 ****  ****    0 ROOT


##########                                Name:    ZINC000842947763
##########                DOCK_Rotatable_Bonds:                   7
##########                         Heavy_Atoms:                  24
##########                    Molecular_Weight:             365.373
##########                DOCK_Rotatable_Bonds:                   7
##########                       Formal_Charge:          0.00999997
##########                     HBond_Acceptors:                   9
##########                        HBond_Donors:                   0
##########                         Heavy_Atoms:                  24
##########                          Grid_Score:          -31.879688
##########                     Grid_vdw_energy:          -31.536285
##########                      Grid_es_energy:           -0.343403
##########           Internal_energy_repulsive:           34.175423

@<TRIPOS>MOLECULE
ZINC000842947763
 42 43 1 0 0
SMALL
USER_CHARGES


@<TRIPOS>ATOM
      1 C1        -10.0623    1.1075   64.5590 C.3     1  ZINC000842947763   -0.1600
      2 C2         -8.5710    0.7928   64.4268 C.3     1  ZINC000842947763   -0.1000
      3 H3         -7.9875    1.6529   64.7552 H       1  ZINC000842947763    0.1000
      4 C4         -8.2429    0.4822   62.9649 C.3     1  ZINC000842947763    0.0800
      5 O5         -9.2696   -0.3826   62.4117 O.3     1  ZINC000842947763   -0.3500
      6 C6         -9.0171   -0.9420   61.2119 C.2     1  ZINC000842947763    0.5200
      7 O7         -7.8958   -0.8990   60.7454 O.2     1  ZINC000842947763   -0.5100
      8 C8        -10.1009   -1.6055   60.4655 C.ar    1  ZINC000842947763   -0.1600
      9 C9         -9.8495   -2.1688   59.2104 C.ar    1  ZINC000842947763   -0.0200
     10 C10       -10.8640   -2.7861   58.5200 C.ar    1  ZINC000842947763   -0.1700
     11 C11       -12.1517   -2.8551   59.0656 C.ar    1  ZINC000842947763    0.2000
     12 C12       -12.3915   -2.2923   60.3138 C.ar    1  ZINC000842947763   -0.1500
     13 C13       -11.3866   -1.6814   61.0094 C.ar    1  ZINC000842947763   -0.0100
     14 C14       -13.8480   -2.5057   60.6630 C.3     1  ZINC000842947763   -0.0800
     15 C15       -14.4243   -3.2653   59.4570 C.3     1  ZINC000842947763    0.1100
     16 N16       -13.2995   -3.4292   58.5327 N.am    1  ZINC000842947763   -0.9400
     17 S17       -13.3838   -4.1890   57.0638 S.o2    1  ZINC000842947763    2.6100
     18 C18       -14.6128   -3.2352   56.1308 C.3     1  ZINC000842947763   -0.6700
     19 O19       -12.0889   -4.0157   56.5047 O.2     1  ZINC000842947763   -0.9300
     20 O20       -13.8835   -5.4841   57.3673 O.2     1  ZINC000842947763   -0.9400
     21 C21        -8.2264   -0.4188   65.2952 C.3     1  ZINC000842947763   -0.1600
     22 C22        -8.0915    0.0215   66.7543 C.3     1  ZINC000842947763    0.4600
     23 F23        -9.3542    0.3442   67.2627 F       1  ZINC000842947763   -0.1800
     24 F24        -7.5383   -1.0203   67.5066 F       1  ZINC000842947763   -0.1800
     25 F25        -7.2586    1.1430   66.8280 F       1  ZINC000842947763   -0.1800
     26 H26       -10.2704    1.4640   65.5679 H       1  ZINC000842947763    0.0700
     27 H27       -10.3366    1.8774   63.8378 H       1  ZINC000842947763    0.0700
     28 H28       -10.6427    0.2053   64.3656 H       1  ZINC000842947763    0.0600
     29 H29        -8.2048    1.4111   62.3958 H       1  ZINC000842947763    0.0800
     30 H30        -7.2764   -0.0186   62.9080 H       1  ZINC000842947763    0.0800
     31 H31        -8.8585   -2.1182   58.7841 H       1  ZINC000842947763    0.1500
     32 H32       -10.6673   -3.2205   57.5509 H       1  ZINC000842947763    0.1500
     33 H33       -11.5878   -1.2489   61.9784 H       1  ZINC000842947763    0.1400
     34 H34       -13.9382   -3.1050   61.5690 H       1  ZINC000842947763    0.1000
     35 H35       -14.3540   -1.5482   60.7870 H       1  ZINC000842947763    0.1000
     36 H36       -14.8023   -4.2389   59.7689 H       1  ZINC000842947763    0.1000
     37 H37       -15.2176   -2.6835   58.9876 H       1  ZINC000842947763    0.0900
     38 H38       -14.2760   -2.2028   56.0362 H       1  ZINC000842947763    0.1300
     39 H39       -14.7336   -3.6703   55.1386 H       1  ZINC000842947763    0.1400
     40 H40       -15.5672   -3.2593   56.6567 H       1  ZINC000842947763    0.1300
     41 H41        -9.0187   -1.1626   65.2120 H       1  ZINC000842947763    0.1200
     42 H42        -7.2846   -0.8517   64.9578 H       1  ZINC000842947763    0.1100
@<TRIPOS>BOND
     1     1     2    1
     2     1    26    1
     3     1    27    1
     4     1    28    1
     5     2     3    1
     6     2     4    1
     7     2    21    1
     8     4     5    1
     9     4    29    1
    10     4    30    1
    11     5     6    1
    12     6     7    2
    13     6     8    1
    14     8    13   ar
    15     8     9   ar
    16     9    10   ar
    17     9    31    1
    18    10    11   ar
    19    10    32    1
    20    11    16    1
    21    11    12   ar
    22    12    13   ar
    23    12    14    1
    24    13    33    1
    25    14    15    1
    26    14    34    1
    27    14    35    1
    28    15    16    1
    29    15    36    1
    30    15    37    1
    31    16    17   am
    32    17    18    1
    33    17    19    2
    34    17    20    2
    35    18    38    1
    36    18    39    1
    37    18    40    1
    38    21    22    1
    39    21    41    1
    40    21    42    1
    41    22    23    1
    42    22    24    1
    43    22    25    1
@<TRIPOS>SUBSTRUCTURE
     1 ZINC000842947763        1 TEMP              0 ****  ****    0 ROOT


##########                                Name:    ZINC000010935976
##########                DOCK_Rotatable_Bonds:                   3
##########                         Heavy_Atoms:                  26
##########                    Molecular_Weight:             391.558
##########                DOCK_Rotatable_Bonds:                   3
##########                       Formal_Charge:         -0.00999979
##########                     HBond_Acceptors:                   7
##########                        HBond_Donors:                   1
##########                         Heavy_Atoms:                  26
##########                          Grid_Score:          -31.856655
##########                     Grid_vdw_energy:          -31.541222
##########                      Grid_es_energy:           -0.315434
##########           Internal_energy_repulsive:          126.530334

@<TRIPOS>MOLECULE
ZINC000010935976
 51 54 1 0 0
SMALL
USER_CHARGES


@<TRIPOS>ATOM
      1 C1         -6.9227    1.2183   54.0487 C.3     1  ZINC000010935976   -0.0800
      2 C2         -7.8781    0.4806   54.9508 C.2     1  ZINC000010935976   -0.2100
      3 C3         -8.0124    0.7137   56.2418 C.2     1  ZINC000010935976   -0.0400
      4 C4         -7.2089    1.7636   56.9651 C.3     1  ZINC000010935976   -0.1000
      5 C5         -8.9941   -0.1187   56.9121 C.2     1  ZINC000010935976   -0.2300
      6 C6         -9.6074   -1.0129   56.0375 C.2     1  ZINC000010935976    0.0900
      7 N7        -10.5469   -1.8611   56.5008 N.2     1  ZINC000010935976   -0.4900
      8 C8        -10.9034   -1.8686   57.7628 C.2     1  ZINC000010935976    0.3400
      9 S9        -12.1381   -3.0046   58.3009 S.3     1  ZINC000010935976    0.0500
     10 C10       -12.9813   -3.3196   56.7306 C.3     1  ZINC000010935976   -0.1000
     11 H11       -12.2472   -3.3849   55.9275 H       1  ZINC000010935976    0.1400
     12 C12       -13.9643   -2.1836   56.4378 C.3     1  ZINC000010935976   -0.1000
     13 C13       -14.5826   -1.6630   57.7226 C.3     1  ZINC000010935976   -0.1300
     14 C14       -15.4880   -2.6641   58.4165 C.3     1  ZINC000010935976   -0.1400
     15 C15       -14.6831   -3.8540   58.9426 C.3     1  ZINC000010935976    0.0700
     16 N16       -14.5550   -4.8491   57.8656 N.am    1  ZINC000010935976   -0.7200
     17 C17       -13.7545   -4.6185   56.8199 C.2     1  ZINC000010935976    0.5400
     18 O18       -13.6535   -5.4484   55.9414 O.2     1  ZINC000010935976   -0.5200
     19 N19       -10.3405   -1.0177   58.6695 N.am    1  ZINC000010935976   -0.5100
     20 C20       -10.7666   -1.0587   60.0705 C.3     1  ZINC000010935976    0.1200
     21 C21        -9.6778   -1.7277   60.9348 C.3     1  ZINC000010935976   -0.1300
     22 C22        -8.8594   -0.5406   61.5004 C.3     1  ZINC000010935976   -0.1300
     23 C23        -9.9500    0.5218   61.7848 C.3     1  ZINC000010935976   -0.1100
     24 C24       -10.9396    0.3716   60.6110 C.3     1  ZINC000010935976   -0.1200
     25 C25        -9.3939   -0.1410   58.2819 C.2     1  ZINC000010935976    0.5600
     26 O26        -8.8881    0.6214   59.0876 O.2     1  ZINC000010935976   -0.5000
     27 S27        -8.9590   -0.7926   54.4173 S.3     1  ZINC000010935976    0.2100
     28 H28        -7.0142    0.8357   53.0321 H       1  ZINC000010935976    0.0700
     29 H29        -7.1607    2.2819   54.0594 H       1  ZINC000010935976    0.0800
     30 H30        -5.9021    1.0707   54.4019 H       1  ZINC000010935976    0.0800
     31 H31        -7.7434    2.7132   56.9376 H       1  ZINC000010935976    0.0700
     32 H32        -7.0623    1.4591   58.0014 H       1  ZINC000010935976    0.0800
     33 H33        -6.2398    1.8780   56.4794 H       1  ZINC000010935976    0.0700
     34 H34       -13.4357   -1.3712   55.9389 H       1  ZINC000010935976    0.0900
     35 H35       -14.7540   -2.5521   55.7831 H       1  ZINC000010935976    0.0900
     36 H36       -13.7808   -1.3860   58.4071 H       1  ZINC000010935976    0.0700
     37 H37       -15.1634   -0.7698   57.4923 H       1  ZINC000010935976    0.0800
     38 H38       -15.9907   -2.1746   59.2507 H       1  ZINC000010935976    0.0800
     39 H39       -16.2356   -3.0219   57.7086 H       1  ZINC000010935976    0.0700
     40 H40       -13.6927   -3.5184   59.2501 H       1  ZINC000010935976    0.1100
     41 H41       -15.2012   -4.2991   59.7921 H       1  ZINC000010935976    0.0900
     42 H42       -15.0532   -5.6800   57.9155 H       1  ZINC000010935976    0.4000
     43 H43       -11.7043   -1.6075   60.1594 H       1  ZINC000010935976    0.1000
     44 H44       -10.1313   -2.2988   61.7449 H       1  ZINC000010935976    0.0800
     45 H45        -9.0452   -2.3696   60.3218 H       1  ZINC000010935976    0.0700
     46 H46        -8.3496   -0.8266   62.4205 H       1  ZINC000010935976    0.0600
     47 H47        -8.1474   -0.1749   60.7606 H       1  ZINC000010935976    0.1100
     48 H48       -10.4474    0.3140   62.7321 H       1  ZINC000010935976    0.0600
     49 H49        -9.5159    1.5216   61.7920 H       1  ZINC000010935976    0.0700
     50 H50       -10.7065    1.0961   59.8308 H       1  ZINC000010935976    0.0800
     51 H51       -11.9611    0.5167   60.9628 H       1  ZINC000010935976    0.0700
@<TRIPOS>BOND
     1     1     2    1
     2     1    28    1
     3     1    29    1
     4     1    30    1
     5     2    27    1
     6     2     3    2
     7     3     4    1
     8     3     5    1
     9     4    31    1
    10     4    32    1
    11     4    33    1
    12     5    25    1
    13     5     6    2
    14     6     7    1
    15     6    27    1
    16     7     8    2
    17     8     9    1
    18     8    19    1
    19     9    10    1
    20    10    11    1
    21    10    17    1
    22    10    12    1
    23    12    13    1
    24    12    34    1
    25    12    35    1
    26    13    14    1
    27    13    36    1
    28    13    37    1
    29    14    15    1
    30    14    38    1
    31    14    39    1
    32    15    16    1
    33    15    40    1
    34    15    41    1
    35    16    17   am
    36    16    42    1
    37    17    18    2
    38    19    20    1
    39    19    25   am
    40    20    24    1
    41    20    21    1
    42    20    43    1
    43    21    22    1
    44    21    44    1
    45    21    45    1
    46    22    23    1
    47    22    46    1
    48    22    47    1
    49    23    24    1
    50    23    48    1
    51    23    49    1
    52    24    50    1
    53    24    51    1
    54    25    26    2
@<TRIPOS>SUBSTRUCTURE
     1 ZINC000010935976        1 TEMP              0 ****  ****    0 ROOT


##########                                Name:    ZINC001077846158
##########                DOCK_Rotatable_Bonds:                   7
##########                         Heavy_Atoms:                  24
##########                    Molecular_Weight:             350.442
##########                DOCK_Rotatable_Bonds:                   7
##########                       Formal_Charge:          -0.0600002
##########                     HBond_Acceptors:                   8
##########                        HBond_Donors:                   2
##########                         Heavy_Atoms:                  24
##########                          Grid_Score:          -31.827946
##########                     Grid_vdw_energy:          -31.865908
##########                      Grid_es_energy:            0.037962
##########           Internal_energy_repulsive:            7.674031

@<TRIPOS>MOLECULE
ZINC001077846158
 46 48 1 0 0
SMALL
USER_CHARGES


@<TRIPOS>ATOM
      1 C1          0.6661    0.0356   46.4548 C.3     1  ZINC001077846158   -0.0700
      2 C2         -0.5587    0.5132   45.7181 C.2     1  ZINC001077846158    0.0100
      3 C3         -1.3335    1.5558   46.0604 C.2     1  ZINC001077846158   -0.0500
      4 C4         -1.1403    2.4627   47.2484 C.3     1  ZINC001077846158    0.1300
      5 N5         -1.8157    1.8869   48.4190 N.3     1  ZINC001077846158   -0.5100
      6 C6         -1.1066    2.2474   49.6733 C.3     1  ZINC001077846158    0.0000
      7 C7         -2.1871    2.0380   50.7640 C.3     1  ZINC001077846158    0.1000
      8 H8         -2.2663    0.9843   51.0312 H       1  ZINC001077846158    0.0800
      9 O9         -1.9006    2.8303   51.9182 O.3     1  ZINC001077846158   -0.5600
     10 C10        -3.4791    2.5247   50.0685 C.3     1  ZINC001077846158    0.1400
     11 H11        -3.6928    3.5567   50.3466 H       1  ZINC001077846158    0.1100
     12 N12        -4.6058    1.6590   50.4256 N.am    1  ZINC001077846158   -0.7000
     13 C13        -5.2701    1.8597   51.5810 C.2     1  ZINC001077846158    0.6000
     14 O14        -4.9334    2.7588   52.3278 O.2     1  ZINC001077846158   -0.5300
     15 C15        -6.4037    0.9907   51.9391 C.2     1  ZINC001077846158    0.0100
     16 C16        -6.7209   -0.1307   51.2537 C.2     1  ZINC001077846158   -0.2300
     17 S17        -8.0894   -0.8529   51.9801 S.3     1  ZINC001077846158    0.2300
     18 C18        -8.1593    0.3831   53.1564 C.2     1  ZINC001077846158    0.0300
     19 C19        -9.1848    0.4628   54.2578 C.3     1  ZINC001077846158   -0.0200
     20 C20        -9.7976   -0.9205   54.4852 C.3     1  ZINC001077846158   -0.1500
     21 C21        -8.5131    0.9413   55.5465 C.3     1  ZINC001077846158   -0.1500
     22 N22        -7.2113    1.2337   52.9749 N.2     1  ZINC001077846158   -0.4500
     23 C23        -3.1850    2.4277   48.5601 C.3     1  ZINC001077846158    0.0300
     24 O24        -2.3158    1.6383   45.1417 O.3     1  ZINC001077846158   -0.2100
     25 C25        -2.1299    0.6514   44.2551 C.2     1  ZINC001077846158    0.1800
     26 N26        -1.0697   -0.0240   44.5961 N.2     1  ZINC001077846158   -0.4900
     27 H27         1.5466    0.5468   46.0656 H       1  ZINC001077846158    0.0800
     28 H28         0.5593    0.2541   47.5174 H       1  ZINC001077846158    0.0700
     29 H29         0.7785   -1.0394   46.3144 H       1  ZINC001077846158    0.0700
     30 H30        -0.0755    2.5658   47.4574 H       1  ZINC001077846158    0.0600
     31 H31        -1.5643    3.4428   47.0299 H       1  ZINC001077846158    0.1100
     32 H32        -0.2581    1.5839   49.8400 H       1  ZINC001077846158    0.0900
     33 H33        -0.7833    3.2880   49.6469 H       1  ZINC001077846158    0.0600
     34 H34        -2.4784    2.6500   52.6723 H       1  ZINC001077846158    0.3900
     35 H35        -4.8736    0.9413   49.8306 H       1  ZINC001077846158    0.4100
     36 H36        -6.1957   -0.5083   50.3888 H       1  ZINC001077846158    0.1900
     37 H37        -9.9687    1.1653   53.9742 H       1  ZINC001077846158    0.1000
     38 H38       -10.2762   -1.2613   53.5670 H       1  ZINC001077846158    0.0600
     39 H39        -9.0138   -1.6229   54.7687 H       1  ZINC001077846158    0.0600
     40 H40       -10.5394   -0.8628   55.2817 H       1  ZINC001077846158    0.0700
     41 H41        -8.0766    1.9267   55.3845 H       1  ZINC001077846158    0.0600
     42 H42        -9.2549    0.9989   56.3431 H       1  ZINC001077846158    0.0700
     43 H43        -7.7293    0.2389   55.8300 H       1  ZINC001077846158    0.0600
     44 H44        -3.2421    3.4170   48.1062 H       1  ZINC001077846158    0.0600
     45 H45        -3.9001    1.7563   48.0847 H       1  ZINC001077846158    0.0900
     46 H46        -2.7539    0.4514   43.3965 H       1  ZINC001077846158    0.2500
@<TRIPOS>BOND
     1     1     2    1
     2     1    27    1
     3     1    28    1
     4     1    29    1
     5     2    26    1
     6     2     3    2
     7     3     4    1
     8     3    24    1
     9     4     5    1
    10     4    30    1
    11     4    31    1
    12     5    23    1
    13     5     6    1
    14     6     7    1
    15     6    32    1
    16     6    33    1
    17     7     8    1
    18     7     9    1
    19     7    10    1
    20     9    34    1
    21    10    11    1
    22    10    12    1
    23    10    23    1
    24    12    13   am
    25    12    35    1
    26    13    14    2
    27    13    15    1
    28    15    22    1
    29    15    16    2
    30    16    17    1
    31    16    36    1
    32    17    18    1
    33    18    19    1
    34    18    22    2
    35    19    20    1
    36    19    21    1
    37    19    37    1
    38    20    38    1
    39    20    39    1
    40    20    40    1
    41    21    41    1
    42    21    42    1
    43    21    43    1
    44    23    44    1
    45    23    45    1
    46    24    25    1
    47    25    26    2
    48    25    46    1
@<TRIPOS>SUBSTRUCTURE
     1 ZINC001077846158        1 TEMP              0 ****  ****    0 ROOT


##########                                Name:    ZINC000970996691
##########                DOCK_Rotatable_Bonds:                   7
##########                         Heavy_Atoms:                  24
##########                    Molecular_Weight:             334.462
##########                DOCK_Rotatable_Bonds:                   7
##########                       Formal_Charge:          -0.0199999
##########                     HBond_Acceptors:                   6
##########                        HBond_Donors:                   0
##########                         Heavy_Atoms:                  24
##########                          Grid_Score:          -31.827120
##########                     Grid_vdw_energy:          -31.323574
##########                      Grid_es_energy:           -0.503545
##########           Internal_energy_repulsive:           11.712499

@<TRIPOS>MOLECULE
ZINC000970996691
 54 56 1 0 0
SMALL
USER_CHARGES


@<TRIPOS>ATOM
      1 C1         -8.0887   -1.4596   60.2176 C.3     1  ZINC000970996691   -0.1500
      2 C2         -9.5756   -1.2734   60.5256 C.3     1  ZINC000970996691   -0.1200
      3 C3        -10.3906   -2.3125   59.7528 C.3     1  ZINC000970996691   -0.0300
      4 C4        -10.3435   -1.9941   58.2806 C.2     1  ZINC000970996691    0.1800
      5 N5        -10.4400   -0.8055   57.7352 N.2     1  ZINC000970996691   -0.4700
      6 C6        -10.3456   -1.0071   56.4088 C.2     1  ZINC000970996691    0.1800
      7 C7        -10.3992    0.0533   55.3394 C.3     1  ZINC000970996691    0.1500
      8 N8         -9.7602   -0.4515   54.1168 N.3     1  ZINC000970996691   -0.5200
      9 C9        -10.7660   -0.8452   53.1212 C.3     1  ZINC000970996691    0.0200
     10 C10        -8.8296    0.5402   53.5612 C.3     1  ZINC000970996691    0.0700
     11 H11        -9.3500    1.4653   53.3135 H       1  ZINC000970996691    0.0600
     12 C12        -7.6539    0.8078   54.5376 C.3     1  ZINC000970996691   -0.1300
     13 C13        -6.5186    1.2609   53.5957 C.3     1  ZINC000970996691    0.1000
     14 N14        -6.8306    0.7431   52.2555 N.am    1  ZINC000970996691   -0.6200
     15 C15        -6.0911    0.9391   51.1459 C.2     1  ZINC000970996691    0.5300
     16 O16        -6.4459    0.4625   50.0886 O.2     1  ZINC000970996691   -0.5300
     17 C17        -4.8233    1.7505   51.2190 C.3     1  ZINC000970996691   -0.1000
     18 C18        -3.8281    1.2366   50.1767 C.3     1  ZINC000970996691   -0.1100
     19 C19        -2.5409    2.0604   50.2510 C.3     1  ZINC000970996691   -0.1200
     20 C20        -2.8594    3.5304   49.9707 C.3     1  ZINC000970996691   -0.1200
     21 C21        -3.8547    4.0444   51.0129 C.3     1  ZINC000970996691   -0.1200
     22 C22        -5.1418    3.2205   50.9386 C.3     1  ZINC000970996691   -0.1000
     23 C23        -8.0864   -0.0268   52.3260 C.3     1  ZINC000970996691    0.1200
     24 N24       -10.1992   -2.2842   56.2187 N.2     1  ZINC000970996691   -0.3800
     25 O25       -10.1895   -2.8685   57.2817 O.3     1  ZINC000970996691    0.0800
     26 H26        -7.7781   -2.4606   60.5168 H       1  ZINC000970996691    0.0600
     27 H27        -7.9203   -1.3314   59.1482 H       1  ZINC000970996691    0.0600
     28 H28        -7.5080   -0.7194   60.7681 H       1  ZINC000970996691    0.0600
     29 H29        -9.7440   -1.4016   61.5950 H       1  ZINC000970996691    0.0700
     30 H30        -9.8862   -0.2724   60.2264 H       1  ZINC000970996691    0.0700
     31 H31        -9.9707   -3.3038   59.9238 H       1  ZINC000970996691    0.1100
     32 H32       -11.4248   -2.2918   60.0963 H       1  ZINC000970996691    0.1000
     33 H33       -11.4386    0.3049   55.1289 H       1  ZINC000970996691    0.0700
     34 H34        -9.8725    0.9434   55.6837 H       1  ZINC000970996691    0.1100
     35 H35       -11.3799    0.0179   52.8639 H       1  ZINC000970996691    0.0300
     36 H36       -10.2658   -1.2151   52.2262 H       1  ZINC000970996691    0.0800
     37 H37       -11.3986   -1.6307   53.5348 H       1  ZINC000970996691    0.0700
     38 H38        -7.9099    1.5995   55.2417 H       1  ZINC000970996691    0.0800
     39 H39        -7.3759   -0.1044   55.0658 H       1  ZINC000970996691    0.0900
     40 H40        -6.4700    2.3495   53.5705 H       1  ZINC000970996691    0.0700
     41 H41        -5.5675    0.8532   53.9384 H       1  ZINC000970996691    0.0700
     42 H42        -4.3885    1.6563   52.2140 H       1  ZINC000970996691    0.0900
     43 H43        -3.6011    0.1893   50.3765 H       1  ZINC000970996691    0.0700
     44 H44        -4.2628    1.3308   49.1817 H       1  ZINC000970996691    0.0700
     45 H45        -2.1061    1.9662   51.2460 H       1  ZINC000970996691    0.0600
     46 H46        -1.8319    1.6943   49.5085 H       1  ZINC000970996691    0.0700
     47 H47        -1.9424    4.1173   50.0235 H       1  ZINC000970996691    0.0600
     48 H48        -3.2942    3.6246   48.9756 H       1  ZINC000970996691    0.0600
     49 H49        -3.4198    3.9502   52.0079 H       1  ZINC000970996691    0.0600
     50 H50        -4.0815    5.0916   50.8132 H       1  ZINC000970996691    0.0700
     51 H51        -5.5766    3.3147   49.9436 H       1  ZINC000970996691    0.0800
     52 H52        -5.8509    3.5867   51.6812 H       1  ZINC000970996691    0.0600
     53 H53        -7.8742   -1.0868   52.4654 H       1  ZINC000970996691    0.0800
     54 H54        -8.6770    0.1272   51.4229 H       1  ZINC000970996691    0.0800
@<TRIPOS>BOND
     1     1     2    1
     2     1    26    1
     3     1    27    1
     4     1    28    1
     5     2     3    1
     6     2    29    1
     7     2    30    1
     8     3     4    1
     9     3    31    1
    10     3    32    1
    11     4    25    1
    12     4     5    2
    13     5     6    1
    14     6     7    1
    15     6    24    2
    16     7     8    1
    17     7    33    1
    18     7    34    1
    19     8     9    1
    20     8    10    1
    21     9    35    1
    22     9    36    1
    23     9    37    1
    24    10    11    1
    25    10    23    1
    26    10    12    1
    27    12    13    1
    28    12    38    1
    29    12    39    1
    30    13    14    1
    31    13    40    1
    32    13    41    1
    33    14    15   am
    34    14    23    1
    35    15    16    2
    36    15    17    1
    37    17    22    1
    38    17    18    1
    39    17    42    1
    40    18    19    1
    41    18    43    1
    42    18    44    1
    43    19    20    1
    44    19    45    1
    45    19    46    1
    46    20    21    1
    47    20    47    1
    48    20    48    1
    49    21    22    1
    50    21    49    1
    51    21    50    1
    52    22    51    1
    53    22    52    1
    54    23    53    1
    55    23    54    1
    56    24    25    1
@<TRIPOS>SUBSTRUCTURE
     1 ZINC000970996691        1 TEMP              0 ****  ****    0 ROOT


##########                                Name:    ZINC000919225759
##########                DOCK_Rotatable_Bonds:                   4
##########                         Heavy_Atoms:                  27
##########                    Molecular_Weight:             375.295
##########                DOCK_Rotatable_Bonds:                   4
##########                       Formal_Charge:                0.04
##########                     HBond_Acceptors:                  11
##########                        HBond_Donors:                   0
##########                         Heavy_Atoms:                  27
##########                          Grid_Score:          -31.803425
##########                     Grid_vdw_energy:          -31.466022
##########                      Grid_es_energy:           -0.337402
##########           Internal_energy_repulsive:            8.662686

@<TRIPOS>MOLECULE
ZINC000919225759
 40 41 1 0 0
SMALL
USER_CHARGES


@<TRIPOS>ATOM
      1 C1        -10.8228   -4.0354   57.5543 C.3     1  ZINC000919225759   -0.1500
      2 C2        -11.7463   -3.3102   58.4991 C.ar    1  ZINC000919225759    0.0900
      3 C3        -11.2358   -2.3581   59.3834 C.ar    1  ZINC000919225759   -0.1200
      4 C4         -9.7894   -2.0580   59.3965 C.2     1  ZINC000919225759    0.5200
      5 O5         -9.0352   -2.7323   60.0687 O.2     1  ZINC000919225759   -0.4700
      6 O6         -9.3069   -1.0364   58.6628 O.3     1  ZINC000919225759   -0.3400
      7 C7         -8.3534   -0.1529   59.3098 C.3     1  ZINC000919225759    0.1400
      8 H8         -7.4440   -0.7072   59.5422 H       1  ZINC000919225759    0.1100
      9 C9         -8.0170    1.0086   58.3725 C.3     1  ZINC000919225759   -0.1700
     10 C10        -8.9522    0.3864   60.5833 C.ar    1  ZINC000919225759   -0.1000
     11 C11        -9.9710    1.3187   60.5271 C.ar    1  ZINC000919225759   -0.0400
     12 C12       -10.5203    1.8136   61.6954 C.ar    1  ZINC000919225759   -0.1100
     13 C13       -10.0511    1.3756   62.9193 C.ar    1  ZINC000919225759   -0.0500
     14 C14        -9.0326    0.4423   62.9755 C.ar    1  ZINC000919225759   -0.0400
     15 N15        -8.5297   -0.0264   64.2863 N.pl3   1  ZINC000919225759    0.0300
     16 O16        -9.0132    0.4101   65.3155 O.2     1  ZINC000919225759   -0.1500
     17 O17        -7.6325   -0.8485   64.3358 O.2     1  ZINC000919225759   -0.1500
     18 C18        -8.4863   -0.0555   61.8076 C.ar    1  ZINC000919225759   -0.0400
     19 C19       -12.0987   -1.6905   60.2551 C.ar    1  ZINC000919225759    0.0500
     20 C20       -13.4480   -1.9753   60.2372 C.ar    1  ZINC000919225759   -0.0600
     21 N21       -14.3643   -1.2683   61.1600 N.pl3   1  ZINC000919225759    0.0300
     22 O22       -13.9263   -0.4362   61.9341 O.2     1  ZINC000919225759   -0.1300
     23 O23       -15.5561   -1.5188   61.1455 O.2     1  ZINC000919225759   -0.1300
     24 C24       -13.9474   -2.9202   59.3581 C.ar    1  ZINC000919225759    0.0400
     25 C25       -13.0989   -3.5815   58.4881 C.ar    1  ZINC000919225759   -0.0500
     26 N26       -13.6421   -4.5903   57.5509 N.pl3   1  ZINC000919225759    0.0200
     27 O27       -14.5402   -5.3318   57.9076 O.2     1  ZINC000919225759   -0.1300
     28 O28       -13.1910   -4.6789   56.4230 O.2     1  ZINC000919225759   -0.1200
     29 H29       -10.6515   -3.4208   56.6706 H       1  ZINC000919225759    0.1200
     30 H30        -9.8726   -4.2289   58.0521 H       1  ZINC000919225759    0.1200
     31 H31       -11.2765   -4.9809   57.2571 H       1  ZINC000919225759    0.0900
     32 H32        -8.9262    1.5630   58.1401 H       1  ZINC000919225759    0.0700
     33 H33        -7.3012    1.6720   58.8582 H       1  ZINC000919225759    0.0900
     34 H34        -7.5839    0.6186   57.4515 H       1  ZINC000919225759    0.0700
     35 H35       -10.3376    1.6609   59.5706 H       1  ZINC000919225759    0.1500
     36 H36       -11.3160    2.5425   61.6515 H       1  ZINC000919225759    0.1500
     37 H37       -10.4798    1.7627   63.8320 H       1  ZINC000919225759    0.1600
     38 H38        -7.6907   -0.7846   61.8514 H       1  ZINC000919225759    0.1600
     39 H39       -11.7102   -0.9531   60.9420 H       1  ZINC000919225759    0.1900
     40 H40       -15.0049   -3.1397   59.3484 H       1  ZINC000919225759    0.1900
@<TRIPOS>BOND
     1     1     2    1
     2     1    29    1
     3     1    30    1
     4     1    31    1
     5     2    25   ar
     6     2     3   ar
     7     3     4    1
     8     3    19   ar
     9     4     5    2
    10     4     6    1
    11     6     7    1
    12     7     8    1
    13     7     9    1
    14     7    10    1
    15     9    32    1
    16     9    33    1
    17     9    34    1
    18    10    18   ar
    19    10    11   ar
    20    11    12   ar
    21    11    35    1
    22    12    13   ar
    23    12    36    1
    24    13    14   ar
    25    13    37    1
    26    14    15    1
    27    14    18   ar
    28    15    16    2
    29    15    17    2
    30    18    38    1
    31    19    20   ar
    32    19    39    1
    33    20    21    1
    34    20    24   ar
    35    21    22    2
    36    21    23    2
    37    24    25   ar
    38    24    40    1
    39    25    26    1
    40    26    27    2
    41    26    28    2
@<TRIPOS>SUBSTRUCTURE
     1 ZINC000919225759        1 TEMP              0 ****  ****    0 ROOT


##########                                Name:    ZINC000550217006
##########                DOCK_Rotatable_Bonds:                   7
##########                         Heavy_Atoms:                  27
##########                    Molecular_Weight:             367.404
##########                DOCK_Rotatable_Bonds:                   7
##########                       Formal_Charge:          0.00999951
##########                     HBond_Acceptors:                   7
##########                        HBond_Donors:                   3
##########                         Heavy_Atoms:                  27
##########                          Grid_Score:          -31.787781
##########                     Grid_vdw_energy:          -31.552586
##########                      Grid_es_energy:           -0.235194
##########           Internal_energy_repulsive:           13.532586

@<TRIPOS>MOLECULE
ZINC000550217006
 48 50 1 0 0
SMALL
USER_CHARGES


@<TRIPOS>ATOM
      1 C1         -5.7276    3.5340   54.0813 C.3     1  ZINC000550217006   -0.1500
      2 C2         -7.2475    3.5322   53.9053 C.3     1  ZINC000550217006    0.0500
      3 O3         -7.5675    3.3114   52.5303 O.3     1  ZINC000550217006   -0.3100
      4 C4         -7.2512    2.0961   52.0107 C.ar    1  ZINC000550217006    0.1400
      5 C5         -7.2762    0.9679   52.8173 C.ar    1  ZINC000550217006   -0.2100
      6 C6         -6.9547   -0.2666   52.2865 C.ar    1  ZINC000550217006   -0.0800
      7 C7         -6.6077   -0.3778   50.9530 C.ar    1  ZINC000550217006   -0.1600
      8 C8         -6.5815    0.7455   50.1468 C.ar    1  ZINC000550217006   -0.0700
      9 C9         -6.9081    1.9809   50.6711 C.ar    1  ZINC000550217006   -0.1200
     10 C10        -6.8799    3.2046   49.7921 C.3     1  ZINC000550217006   -0.0800
     11 C11        -5.5723    3.9659   50.0194 C.3     1  ZINC000550217006    0.1300
     12 N12        -4.4803    3.2791   49.3251 N.am    1  ZINC000550217006   -0.7200
     13 C13        -3.2260    3.7674   49.3929 C.2     1  ZINC000550217006    0.5600
     14 O14        -3.0009    4.7781   50.0290 O.2     1  ZINC000550217006   -0.5300
     15 C15        -2.1220    3.0723   48.6926 C.ar    1  ZINC000550217006   -0.0800
     16 C16        -0.8364    3.6184   48.6970 C.ar    1  ZINC000550217006   -0.1000
     17 C17         0.1845    2.9712   48.0450 C.ar    1  ZINC000550217006   -0.0500
     18 C18        -0.0472    1.7608   47.3710 C.ar    1  ZINC000550217006   -0.1300
     19 C19        -1.3286    1.2107   47.3671 C.ar    1  ZINC000550217006    0.1800
     20 C20        -2.3611    1.8725   48.0342 C.ar    1  ZINC000550217006   -0.0900
     21 N21        -1.6446    0.0181   46.7391 N.am    1  ZINC000550217006   -0.6600
     22 C22        -1.1969   -0.3740   45.5502 C.2     1  ZINC000550217006    0.5100
     23 O23        -1.5887   -1.4262   45.0917 O.2     1  ZINC000550217006   -0.5100
     24 C24        -0.2193    0.4490   44.7569 C.3     1  ZINC000550217006    0.0900
     25 N25         1.0360    0.5401   45.5026 N.am    1  ZINC000550217006   -0.7100
     26 C26         1.0966    1.1331   46.6936 C.2     1  ZINC000550217006    0.5600
     27 O27         2.1721    1.1572   47.2596 O.2     1  ZINC000550217006   -0.5200
     28 H28        -5.2926    4.3285   53.4749 H       1  ZINC000550217006    0.0700
     29 H29        -5.4836    3.7024   55.1302 H       1  ZINC000550217006    0.0800
     30 H30        -5.3240    2.5725   53.7642 H       1  ZINC000550217006    0.0700
     31 H31        -7.6825    2.7377   54.5117 H       1  ZINC000550217006    0.0600
     32 H32        -7.6511    4.4938   54.2225 H       1  ZINC000550217006    0.0600
     33 H33        -7.5465    1.0544   53.8593 H       1  ZINC000550217006    0.1300
     34 H34        -6.9740   -1.1453   52.9141 H       1  ZINC000550217006    0.1300
     35 H35        -6.3563   -1.3436   50.5400 H       1  ZINC000550217006    0.1300
     36 H36        -6.3098    0.6561   49.1054 H       1  ZINC000550217006    0.1300
     37 H37        -6.9475    2.9027   48.7469 H       1  ZINC000550217006    0.0800
     38 H38        -7.7233    3.8493   50.0394 H       1  ZINC000550217006    0.0800
     39 H39        -5.6696    4.9794   49.6306 H       1  ZINC000550217006    0.0700
     40 H40        -5.3558    4.0056   51.0870 H       1  ZINC000550217006    0.0700
     41 H41        -4.6601    2.4729   48.8163 H       1  ZINC000550217006    0.4000
     42 H42        -0.6455    4.5484   49.2120 H       1  ZINC000550217006    0.1400
     43 H43         1.1766    3.3978   48.0505 H       1  ZINC000550217006    0.1500
     44 H44        -3.3560    1.4522   48.0316 H       1  ZINC000550217006    0.1500
     45 H45        -2.2442   -0.5838   47.2072 H       1  ZINC000550217006    0.4200
     46 H46        -0.0380   -0.0276   43.7935 H       1  ZINC000550217006    0.1300
     47 H47        -0.6251    1.4485   44.6014 H       1  ZINC000550217006    0.1000
     48 H48         1.8426    0.1597   45.1211 H       1  ZINC000550217006    0.4200
@<TRIPOS>BOND
     1     1     2    1
     2     1    28    1
     3     1    29    1
     4     1    30    1
     5     2     3    1
     6     2    31    1
     7     2    32    1
     8     3     4    1
     9     4     9   ar
    10     4     5   ar
    11     5     6   ar
    12     5    33    1
    13     6     7   ar
    14     6    34    1
    15     7     8   ar
    16     7    35    1
    17     8     9   ar
    18     8    36    1
    19     9    10    1
    20    10    11    1
    21    10    37    1
    22    10    38    1
    23    11    12    1
    24    11    39    1
    25    11    40    1
    26    12    13   am
    27    12    41    1
    28    13    14    2
    29    13    15    1
    30    15    20   ar
    31    15    16   ar
    32    16    17   ar
    33    16    42    1
    34    17    18   ar
    35    17    43    1
    36    18    26    1
    37    18    19   ar
    38    19    20   ar
    39    19    21    1
    40    20    44    1
    41    21    22   am
    42    21    45    1
    43    22    23    2
    44    22    24    1
    45    24    25    1
    46    24    46    1
    47    24    47    1
    48    25    26   am
    49    25    48    1
    50    26    27    2
@<TRIPOS>SUBSTRUCTURE
     1 ZINC000550217006        1 TEMP              0 ****  ****    0 ROOT


##########                                Name:    ZINC000437192871
##########                DOCK_Rotatable_Bonds:                   9
##########                         Heavy_Atoms:                  28
##########                    Molecular_Weight:             423.298
##########                DOCK_Rotatable_Bonds:                   9
##########                       Formal_Charge:         -8.9407e-08
##########                     HBond_Acceptors:                   9
##########                        HBond_Donors:                   1
##########                         Heavy_Atoms:                  28
##########                          Grid_Score:          -31.775303
##########                     Grid_vdw_energy:          -30.766809
##########                      Grid_es_energy:           -1.008493
##########           Internal_energy_repulsive:           13.879189

@<TRIPOS>MOLECULE
ZINC000437192871
 48 50 1 0 0
SMALL
USER_CHARGES


@<TRIPOS>ATOM
      1 C1         -7.0631    2.2164   55.4994 C.3     1  ZINC000437192871   -0.1700
      2 C2         -7.4888    2.2810   56.9677 C.3     1  ZINC000437192871    0.1300
      3 N3         -8.1928    1.0474   57.3267 N.pl3   1  ZINC000437192871   -0.3600
      4 C4         -8.9842    0.3190   56.5117 C.2     1  ZINC000437192871    0.0700
      5 C5         -9.4422   -0.7395   57.2194 C.2     1  ZINC000437192871   -0.2700
      6 C6        -10.3600   -1.8189   56.7062 C.3     1  ZINC000437192871    0.1900
      7 N7        -11.1127   -2.3924   57.8247 N.am    1  ZINC000437192871   -0.6000
      8 C8        -10.6285   -3.6054   58.4881 C.3     1  ZINC000437192871    0.1100
      9 C9        -10.8664   -4.8132   57.5794 C.3     1  ZINC000437192871    0.0600
     10 O10       -10.4276   -6.0012   58.2414 O.3     1  ZINC000437192871   -0.5600
     11 C11       -12.2506   -1.8038   58.2432 C.2     1  ZINC000437192871    0.6000
     12 O12       -12.6525   -0.7966   57.6926 O.2     1  ZINC000437192871   -0.5000
     13 C13       -13.0074   -2.3803   59.3675 C.2     1  ZINC000437192871   -0.2200
     14 C14       -14.0337   -3.2902   59.3312 C.2     1  ZINC000437192871    0.0100
     15 C15       -14.6347   -3.9217   58.1019 C.3     1  ZINC000437192871   -0.0800
     16 O16       -14.3953   -3.5069   60.5978 O.3     1  ZINC000437192871    0.1100
     17 N17       -13.7500   -2.8722   61.3955 N.2     1  ZINC000437192871   -0.3200
     18 C18       -12.8444   -2.1266   60.8145 C.2     1  ZINC000437192871    0.0800
     19 C19       -11.8715   -1.2173   61.4665 C.ar    1  ZINC000437192871   -0.0200
     20 C20       -10.5506   -1.6219   61.6499 C.ar    1  ZINC000437192871   -0.0700
     21 C21        -9.6488   -0.7718   62.2567 C.ar    1  ZINC000437192871   -0.1000
     22 C22       -10.0536    0.4816   62.6834 C.ar    1  ZINC000437192871   -0.0100
     23 Cl23       -8.9133    1.5459   63.4456 Cl      1  ZINC000437192871   -0.0500
     24 C24       -11.3644    0.8894   62.5042 C.ar    1  ZINC000437192871   -0.1100
     25 C25       -12.2738    0.0488   61.8933 C.ar    1  ZINC000437192871    0.0000
     26 Cl26      -13.9171    0.5610   61.6684 Cl      1  ZINC000437192871   -0.0300
     27 C27        -8.9126   -0.6550   58.5113 C.2     1  ZINC000437192871    0.0600
     28 N28        -8.1587    0.4125   58.5749 N.2     1  ZINC000437192871   -0.2900
     29 H29        -6.5393    3.1342   55.2323 H       1  ZINC000437192871    0.0800
     30 H30        -6.4009    1.3635   55.3503 H       1  ZINC000437192871    0.0600
     31 H31        -7.9459    2.1054   54.8697 H       1  ZINC000437192871    0.0700
     32 H32        -6.6060    2.3919   57.5973 H       1  ZINC000437192871    0.1000
     33 H33        -8.1510    3.1337   57.1168 H       1  ZINC000437192871    0.0900
     34 H34        -9.2116    0.5412   55.4795 H       1  ZINC000437192871    0.1600
     35 H35       -11.0540   -1.3919   55.9822 H       1  ZINC000437192871    0.0900
     36 H36        -9.7699   -2.6000   56.2269 H       1  ZINC000437192871    0.0800
     37 H37        -9.5619   -3.5077   58.6907 H       1  ZINC000437192871    0.1000
     38 H38       -11.1652   -3.7454   59.4264 H       1  ZINC000437192871    0.1000
     39 H39       -11.9297   -4.8945   57.3541 H       1  ZINC000437192871    0.0600
     40 H40       -10.3073   -4.6862   56.6524 H       1  ZINC000437192871    0.0500
     41 H41       -10.5477   -6.8080   57.7221 H       1  ZINC000437192871    0.3800
     42 H42       -14.1614   -4.8868   57.9210 H       1  ZINC000437192871    0.1000
     43 H43       -15.7047   -4.0643   58.2529 H       1  ZINC000437192871    0.0900
     44 H44       -14.4725   -3.2708   57.2427 H       1  ZINC000437192871    0.0900
     45 H45       -10.2333   -2.5993   61.3179 H       1  ZINC000437192871    0.1600
     46 H46        -8.6251   -1.0849   62.3994 H       1  ZINC000437192871    0.1500
     47 H47       -11.6751    1.8681   62.8388 H       1  ZINC000437192871    0.1500
     48 H48        -9.0911   -1.3531   59.3157 H       1  ZINC000437192871    0.1800
@<TRIPOS>BOND
     1     1     2    1
     2     1    29    1
     3     1    30    1
     4     1    31    1
     5     2     3    1
     6     2    32    1
     7     2    33    1
     8     3    28    1
     9     3     4    1
    10     4     5    2
    11     4    34    1
    12     5     6    1
    13     5    27    1
    14     6     7    1
    15     6    35    1
    16     6    36    1
    17     7     8    1
    18     7    11   am
    19     8     9    1
    20     8    37    1
    21     8    38    1
    22     9    10    1
    23     9    39    1
    24     9    40    1
    25    10    41    1
    26    11    12    2
    27    11    13    1
    28    13    18    1
    29    13    14    2
    30    14    15    1
    31    14    16    1
    32    15    42    1
    33    15    43    1
    34    15    44    1
    35    16    17    1
    36    17    18    2
    37    18    19    1
    38    19    25   ar
    39    19    20   ar
    40    20    21   ar
    41    20    45    1
    42    21    22   ar
    43    21    46    1
    44    22    23    1
    45    22    24   ar
    46    24    25   ar
    47    24    47    1
    48    25    26    1
    49    27    28    2
    50    27    48    1
@<TRIPOS>SUBSTRUCTURE
     1 ZINC000437192871        1 TEMP              0 ****  ****    0 ROOT


##########                                Name:    ZINC000462219577
##########                DOCK_Rotatable_Bonds:                   8
##########                         Heavy_Atoms:                  31
##########                    Molecular_Weight:             418.539
##########                DOCK_Rotatable_Bonds:                   8
##########                       Formal_Charge:         -0.00999914
##########                     HBond_Acceptors:                   6
##########                        HBond_Donors:                   2
##########                         Heavy_Atoms:                  31
##########                          Grid_Score:          -31.761482
##########                     Grid_vdw_energy:          -31.509113
##########                      Grid_es_energy:           -0.252369
##########           Internal_energy_repulsive:           11.923511

@<TRIPOS>MOLECULE
ZINC000462219577
 61 64 1 0 0
SMALL
USER_CHARGES


@<TRIPOS>ATOM
      1 C1         -8.9211    0.1474   59.8654 C.3     1  ZINC000462219577   -0.0700
      2 C2         -9.5445   -0.6988   58.7853 C.2     1  ZINC000462219577    0.0800
      3 N3        -10.4922   -1.5850   58.9565 N.2     1  ZINC000462219577   -0.2900
      4 N4        -10.7918   -2.1519   57.7110 N.pl3   1  ZINC000462219577   -0.3200
      5 C5        -11.7528   -3.1425   57.4651 C.ar    1  ZINC000462219577    0.1500
      6 C6        -11.4319   -4.4818   57.6413 C.ar    1  ZINC000462219577   -0.1100
      7 C7        -12.3809   -5.4555   57.3982 C.ar    1  ZINC000462219577   -0.1000
      8 C8        -13.6493   -5.0976   56.9793 C.ar    1  ZINC000462219577   -0.1200
      9 C9        -13.9716   -3.7646   56.8025 C.ar    1  ZINC000462219577   -0.1000
     10 C10       -13.0289   -2.7860   57.0504 C.ar    1  ZINC000462219577   -0.1300
     11 C11        -9.9902   -1.5740   56.7878 C.2     1  ZINC000462219577    0.0900
     12 C12        -9.9699   -1.8796   55.3124 C.3     1  ZINC000462219577   -0.0800
     13 C13       -10.1427   -0.5819   54.5204 C.3     1  ZINC000462219577    0.1700
     14 H14       -10.4824    0.2091   55.1889 H       1  ZINC000462219577    0.1000
     15 C15       -11.1777   -0.7939   53.4136 C.3     1  ZINC000462219577   -0.1600
     16 N16        -8.8607   -0.1998   53.9234 N.am    1  ZINC000462219577   -0.7400
     17 C17        -8.7196    1.0106   53.3475 C.2     1  ZINC000462219577    0.7100
     18 O18        -9.6560    1.7858   53.3248 O.2     1  ZINC000462219577   -0.5800
     19 N19        -7.5405    1.3615   52.7967 N.am    1  ZINC000462219577   -0.7400
     20 C20        -7.3867    2.6777   52.1723 C.3     1  ZINC000462219577    0.1600
     21 H21        -8.3265    2.9716   51.7047 H       1  ZINC000462219577    0.1000
     22 C22        -7.0003    3.7083   53.2377 C.3     1  ZINC000462219577   -0.1700
     23 C23        -5.6427    3.3287   53.8349 C.3     1  ZINC000462219577    0.0700
     24 O24        -4.6679    3.2591   52.7923 O.3     1  ZINC000462219577   -0.3700
     25 C25        -4.9525    2.2789   51.7921 C.3     1  ZINC000462219577    0.1400
     26 H26        -5.0206    1.2950   52.2561 H       1  ZINC000462219577    0.0600
     27 C27        -3.8499    2.2746   50.7646 C.ar    1  ZINC000462219577   -0.0900
     28 C28        -3.1848    3.4474   50.4596 C.ar    1  ZINC000462219577   -0.0900
     29 C29        -2.1735    3.4434   49.5172 C.ar    1  ZINC000462219577   -0.1200
     30 C30        -1.8270    2.2666   48.8801 C.ar    1  ZINC000462219577   -0.1200
     31 C31        -2.4916    1.0936   49.1858 C.ar    1  ZINC000462219577   -0.1200
     32 C32        -3.4999    1.0968   50.1314 C.ar    1  ZINC000462219577   -0.1100
     33 C33        -6.2838    2.6158   51.1111 C.3     1  ZINC000462219577   -0.1500
     34 C34        -9.2141   -0.6678   57.4261 C.2     1  ZINC000462219577   -0.2600
     35 H35        -9.4827    1.0758   59.9692 H       1  ZINC000462219577    0.0800
     36 H36        -8.9405   -0.3966   60.8098 H       1  ZINC000462219577    0.0700
     37 H37        -7.8891    0.3749   59.5984 H       1  ZINC000462219577    0.0800
     38 H38       -10.4414   -4.7619   57.9678 H       1  ZINC000462219577    0.1300
     39 H39       -12.1320   -6.4974   57.5350 H       1  ZINC000462219577    0.1300
     40 H40       -14.3894   -5.8608   56.7894 H       1  ZINC000462219577    0.1300
     41 H41       -14.9627   -3.4882   56.4746 H       1  ZINC000462219577    0.1300
     42 H42       -13.2812   -1.7450   56.9122 H       1  ZINC000462219577    0.1300
     43 H43        -9.0181   -2.3414   55.0499 H       1  ZINC000462219577    0.0900
     44 H44       -10.7840   -2.5632   55.0716 H       1  ZINC000462219577    0.1100
     45 H45       -10.8380   -1.5851   52.7452 H       1  ZINC000462219577    0.0600
     46 H46       -12.1316   -1.0782   53.8579 H       1  ZINC000462219577    0.0700
     47 H47       -11.3008    0.1305   52.8494 H       1  ZINC000462219577    0.0700
     48 H48        -8.1133   -0.8179   53.9426 H       1  ZINC000462219577    0.3900
     49 H49        -6.7939    0.7425   52.8139 H       1  ZINC000462219577    0.3900
     50 H50        -6.9343    4.6962   52.7818 H       1  ZINC000462219577    0.0800
     51 H51        -7.7543    3.7188   54.0247 H       1  ZINC000462219577    0.0800
     52 H52        -5.3426    4.0820   54.5633 H       1  ZINC000462219577    0.1000
     53 H53        -5.7199    2.3586   54.3258 H       1  ZINC000462219577    0.0500
     54 H54        -3.4555    4.3668   50.9573 H       1  ZINC000462219577    0.1300
     55 H55        -1.6543    4.3598   49.2784 H       1  ZINC000462219577    0.1200
     56 H56        -1.0374    2.2636   48.1434 H       1  ZINC000462219577    0.1200
     57 H57        -2.2210    0.1743   48.6878 H       1  ZINC000462219577    0.1200
     58 H58        -4.0191    0.1804   50.3701 H       1  ZINC000462219577    0.1200
     59 H59        -6.5236    1.8449   50.3787 H       1  ZINC000462219577    0.0800
     60 H60        -6.2036    3.5815   50.6121 H       1  ZINC000462219577    0.0900
     61 H61        -8.4664   -0.0371   56.9682 H       1  ZINC000462219577    0.1500
@<TRIPOS>BOND
     1     1     2    1
     2     1    35    1
     3     1    36    1
     4     1    37    1
     5     2    34    1
     6     2     3    2
     7     3     4    1
     8     4     5    1
     9     4    11    1
    10     5    10   ar
    11     5     6   ar
    12     6     7   ar
    13     6    38    1
    14     7     8   ar
    15     7    39    1
    16     8     9   ar
    17     8    40    1
    18     9    10   ar
    19     9    41    1
    20    10    42    1
    21    11    12    1
    22    11    34    2
    23    12    13    1
    24    12    43    1
    25    12    44    1
    26    13    14    1
    27    13    15    1
    28    13    16    1
    29    15    45    1
    30    15    46    1
    31    15    47    1
    32    16    17   am
    33    16    48    1
    34    17    18    2
    35    17    19   am
    36    19    20    1
    37    19    49    1
    38    20    21    1
    39    20    33    1
    40    20    22    1
    41    22    23    1
    42    22    50    1
    43    22    51    1
    44    23    24    1
    45    23    52    1
    46    23    53    1
    47    24    25    1
    48    25    26    1
    49    25    27    1
    50    25    33    1
    51    27    32   ar
    52    27    28   ar
    53    28    29   ar
    54    28    54    1
    55    29    30   ar
    56    29    55    1
    57    30    31   ar
    58    30    56    1
    59    31    32   ar
    60    31    57    1
    61    32    58    1
    62    33    59    1
    63    33    60    1
    64    34    61    1
@<TRIPOS>SUBSTRUCTURE
     1 ZINC000462219577        1 TEMP              0 ****  ****    0 ROOT


##########                                Name:    ZINC000654672208
##########                DOCK_Rotatable_Bonds:                   5
##########                         Heavy_Atoms:                  25
##########                    Molecular_Weight:             365.497
##########                DOCK_Rotatable_Bonds:                   5
##########                       Formal_Charge:           0.0100001
##########                     HBond_Acceptors:                   7
##########                        HBond_Donors:                   1
##########                         Heavy_Atoms:                  25
##########                          Grid_Score:          -31.721535
##########                     Grid_vdw_energy:          -29.877584
##########                      Grid_es_energy:           -1.843950
##########           Internal_energy_repulsive:           15.435892

@<TRIPOS>MOLECULE
ZINC000654672208
 52 54 1 0 0
SMALL
USER_CHARGES


@<TRIPOS>ATOM
      1 C1         -6.0053    3.6034   56.2516 C.3     1  ZINC000654672208   -0.1100
      2 C2         -6.6895    2.8290   57.3485 C.ar    1  ZINC000654672208   -0.1300
      3 C3         -6.8686    1.4637   57.2343 C.ar    1  ZINC000654672208    0.1000
      4 N4         -7.4660    0.7793   58.1904 N.ar    1  ZINC000654672208   -0.4700
      5 C5         -7.9132    1.3627   59.2850 C.ar    1  ZINC000654672208    0.1200
      6 C6         -8.5888    0.5345   60.3474 C.3     1  ZINC000654672208   -0.0900
      7 C7         -8.2728   -0.9448   60.1186 C.3     1  ZINC000654672208    0.1500
      8 N8         -9.1177   -1.4636   59.0401 N.am    1  ZINC000654672208   -0.7500
      9 C9        -10.1225   -2.3164   59.3221 C.2     1  ZINC000654672208    0.7100
     10 O10       -10.3276   -2.6554   60.4716 O.2     1  ZINC000654672208   -0.5800
     11 N11       -10.8999   -2.7936   58.3300 N.am    1  ZINC000654672208   -0.6300
     12 C12       -10.6638   -2.3930   56.9363 C.3     1  ZINC000654672208    0.1300
     13 C13       -11.9713   -1.8482   56.3529 C.3     1  ZINC000654672208   -0.1400
     14 C14       -13.0775   -2.8905   56.5280 C.3     1  ZINC000654672208   -0.1100
     15 C15       -13.2940   -3.1606   58.0218 C.3     1  ZINC000654672208   -0.0600
     16 C16       -14.4123   -4.1946   58.1880 C.3     1  ZINC000654672208   -0.1200
     17 C17       -15.1273   -3.9409   59.5401 C.3     1  ZINC000654672208   -0.5800
     18 S18       -15.2437   -2.1064   59.5419 S.o2    1  ZINC000654672208    2.3800
     19 O19       -16.2927   -1.6941   58.6765 O.2     1  ZINC000654672208   -0.9300
     20 O20       -15.1930   -1.6265   60.8785 O.2     1  ZINC000654672208   -0.9300
     21 C21       -13.6278   -1.8328   58.7233 C.3     1  ZINC000654672208   -0.5800
     22 C22       -11.9946   -3.7285   58.6216 C.3     1  ZINC000654672208    0.1200
     23 C23        -7.7693    2.7250   59.4694 C.ar    1  ZINC000654672208   -0.1200
     24 C24        -8.2830    3.3837   60.7237 C.3     1  ZINC000654672208   -0.1200
     25 C25        -7.1421    3.4769   58.4880 C.ar    1  ZINC000654672208   -0.0800
     26 H26        -4.9319    3.6286   56.4396 H       1  ZINC000654672208    0.0700
     27 H27        -6.1950    3.1201   55.2930 H       1  ZINC000654672208    0.0700
     28 H28        -6.3942    4.6213   56.2284 H       1  ZINC000654672208    0.0700
     29 H29        -6.5156    0.9511   56.3516 H       1  ZINC000654672208    0.1600
     30 H30        -8.2245    0.8362   61.3296 H       1  ZINC000654672208    0.0900
     31 H31        -9.6667    0.6878   60.2970 H       1  ZINC000654672208    0.0900
     32 H32        -7.2239   -1.0539   59.8429 H       1  ZINC000654672208    0.0700
     33 H33        -8.4679   -1.5039   61.0338 H       1  ZINC000654672208    0.0700
     34 H34        -8.9540   -1.1932   58.1231 H       1  ZINC000654672208    0.3900
     35 H35        -9.8979   -1.6182   56.9034 H       1  ZINC000654672208    0.1000
     36 H36       -10.3376   -3.2573   56.3578 H       1  ZINC000654672208    0.0700
     37 H37       -12.2487   -0.9323   56.8747 H       1  ZINC000654672208    0.0700
     38 H38       -11.8359   -1.6361   55.2923 H       1  ZINC000654672208    0.0800
     39 H39       -14.0021   -2.5164   56.0887 H       1  ZINC000654672208    0.0800
     40 H40       -12.7870   -3.8156   56.0300 H       1  ZINC000654672208    0.0800
     41 H41       -15.1273   -4.0958   57.3712 H       1  ZINC000654672208    0.1000
     42 H42       -13.9873   -5.1984   58.1808 H       1  ZINC000654672208    0.1000
     43 H43       -16.1173   -4.3968   59.5518 H       1  ZINC000654672208    0.1400
     44 H44       -14.5241   -4.2964   60.3754 H       1  ZINC000654672208    0.1400
     45 H45       -12.8648   -1.5955   59.4645 H       1  ZINC000654672208    0.1400
     46 H46       -13.7070   -1.0290   57.9914 H       1  ZINC000654672208    0.1400
     47 H47       -11.7812   -4.7005   58.1770 H       1  ZINC000654672208    0.0800
     48 H48       -12.1057   -3.8340   59.7007 H       1  ZINC000654672208    0.0800
     49 H49        -7.4988    3.3850   61.4807 H       1  ZINC000654672208    0.0800
     50 H50        -8.5753    4.4100   60.5015 H       1  ZINC000654672208    0.0700
     51 H51        -9.1465    2.8325   61.0960 H       1  ZINC000654672208    0.0700
     52 H52        -7.0156    4.5431   58.6049 H       1  ZINC000654672208    0.1300
@<TRIPOS>BOND
     1     1     2    1
     2     1    26    1
     3     1    27    1
     4     1    28    1
     5     2    25   ar
     6     2     3   ar
     7     3     4   ar
     8     3    29    1
     9     4     5   ar
    10     5     6    1
    11     5    23   ar
    12     6     7    1
    13     6    30    1
    14     6    31    1
    15     7     8    1
    16     7    32    1
    17     7    33    1
    18     8     9   am
    19     8    34    1
    20     9    10    2
    21     9    11   am
    22    11    22    1
    23    11    12    1
    24    12    13    1
    25    12    35    1
    26    12    36    1
    27    13    14    1
    28    13    37    1
    29    13    38    1
    30    14    15    1
    31    14    39    1
    32    14    40    1
    33    15    21    1
    34    15    16    1
    35    15    22    1
    36    16    17    1
    37    16    41    1
    38    16    42    1
    39    17    18    1
    40    17    43    1
    41    17    44    1
    42    18    19    2
    43    18    20    2
    44    18    21    1
    45    21    45    1
    46    21    46    1
    47    22    47    1
    48    22    48    1
    49    23    24    1
    50    23    25   ar
    51    24    49    1
    52    24    50    1
    53    24    51    1
    54    25    52    1
@<TRIPOS>SUBSTRUCTURE
     1 ZINC000654672208        1 TEMP              0 ****  ****    0 ROOT


##########                                Name:    ZINC000451500596
##########                DOCK_Rotatable_Bonds:                   7
##########                         Heavy_Atoms:                  25
##########                    Molecular_Weight:             365.497
##########                DOCK_Rotatable_Bonds:                   7
##########                       Formal_Charge:           0.0400004
##########                     HBond_Acceptors:                   7
##########                        HBond_Donors:                   2
##########                         Heavy_Atoms:                  25
##########                          Grid_Score:          -31.690285
##########                     Grid_vdw_energy:          -29.818357
##########                      Grid_es_energy:           -1.871928
##########           Internal_energy_repulsive:           11.194002

@<TRIPOS>MOLECULE
ZINC000451500596
 52 54 1 0 0
SMALL
USER_CHARGES


@<TRIPOS>ATOM
      1 C1        -10.0118   -0.6212   58.3994 C.3     1  ZINC000451500596   -0.6700
      2 S2         -8.7061    0.6001   58.7060 S.o2    1  ZINC000451500596    2.6100
      3 O3         -9.1791    1.6316   59.5613 O.2     1  ZINC000451500596   -0.9500
      4 O4         -7.4662   -0.0477   58.9557 O.2     1  ZINC000451500596   -0.9600
      5 N5         -8.4890    1.3485   57.2449 N.am    1  ZINC000451500596   -1.1200
      6 C6         -8.0823    0.5666   56.0747 C.3     1  ZINC000451500596    0.1200
      7 C7         -8.6858    1.1861   54.8125 C.3     1  ZINC000451500596   -0.1000
      8 H8         -8.2577    2.1736   54.6402 H       1  ZINC000451500596    0.0900
      9 C9        -10.2180    1.2923   54.9567 C.3     1  ZINC000451500596   -0.1200
     10 C10       -10.7556    0.9790   53.5382 C.3     1  ZINC000451500596   -0.1300
     11 C11        -9.8005   -0.1384   53.0498 C.3     1  ZINC000451500596   -0.1300
     12 C12        -8.4192    0.2771   53.5999 C.3     1  ZINC000451500596    0.1400
     13 H13        -7.8602   -0.6055   53.9108 H       1  ZINC000451500596    0.1000
     14 N14        -7.6707    1.0097   52.5755 N.am    1  ZINC000451500596   -0.7200
     15 C15        -6.9615    0.3361   51.6484 C.2     1  ZINC000451500596    0.5300
     16 O16        -6.9416   -0.8765   51.6630 O.2     1  ZINC000451500596   -0.5300
     17 C17        -6.1930    1.0896   50.5935 C.3     1  ZINC000451500596   -0.1300
     18 H18        -6.0520    0.4720   49.7065 H       1  ZINC000451500596    0.1000
     19 C19        -6.9145    2.4141   50.2304 C.3     1  ZINC000451500596   -0.1200
     20 C20        -5.7355    3.2861   49.7312 C.3     1  ZINC000451500596    0.0500
     21 N21        -4.6014    2.9253   50.6083 N.3     1  ZINC000451500596   -0.4900
     22 C22        -3.3919    2.9831   49.9120 C.ar    1  ZINC000451500596    0.0800
     23 C23        -3.1924    2.1812   48.7955 C.ar    1  ZINC000451500596   -0.0900
     24 C24        -1.9955    2.2412   48.1091 C.ar    1  ZINC000451500596   -0.1100
     25 C25        -0.9960    3.0980   48.5325 C.ar    1  ZINC000451500596   -0.1200
     26 C26        -1.1913    3.8977   49.6438 C.ar    1  ZINC000451500596   -0.1100
     27 C27        -2.3879    3.8468   50.3313 C.ar    1  ZINC000451500596   -0.1500
     28 C28        -4.8344    1.5692   51.1461 C.3     1  ZINC000451500596    0.0600
     29 H29       -10.9153   -0.1111   58.0653 H       1  ZINC000451500596    0.1300
     30 H30        -9.6829   -1.3193   57.6295 H       1  ZINC000451500596    0.1300
     31 H31       -10.2220   -1.1672   59.3191 H       1  ZINC000451500596    0.1300
     32 H32        -8.6309    2.3046   57.1638 H       1  ZINC000451500596    0.4200
     33 H33        -6.9952    0.5685   55.9962 H       1  ZINC000451500596    0.0700
     34 H34        -8.4370   -0.4585   56.1816 H       1  ZINC000451500596    0.0900
     35 H35       -10.5854    0.5589   55.6744 H       1  ZINC000451500596    0.0800
     36 H36       -10.5038    2.2997   55.2590 H       1  ZINC000451500596    0.0700
     37 H37       -11.7823    0.6160   53.5857 H       1  ZINC000451500596    0.0700
     38 H38       -10.6842    1.8565   52.8956 H       1  ZINC000451500596    0.0700
     39 H39       -10.1004   -1.1028   53.4597 H       1  ZINC000451500596    0.0800
     40 H40        -9.7816   -0.1748   51.9607 H       1  ZINC000451500596    0.0700
     41 H41        -7.6857    1.9795   52.5645 H       1  ZINC000451500596    0.4000
     42 H42        -7.6460    2.2559   49.4378 H       1  ZINC000451500596    0.0800
     43 H43        -7.3831    2.8571   51.1092 H       1  ZINC000451500596    0.0800
     44 H44        -5.5022    3.0504   48.6929 H       1  ZINC000451500596    0.0600
     45 H45        -5.9750    4.3442   49.8364 H       1  ZINC000451500596    0.0900
     46 H46        -3.9723    1.5113   48.4646 H       1  ZINC000451500596    0.1300
     47 H47        -1.8397    1.6180   47.2409 H       1  ZINC000451500596    0.1300
     48 H48        -0.0607    3.1424   47.9945 H       1  ZINC000451500596    0.1200
     49 H49        -0.4086    4.5657   49.9718 H       1  ZINC000451500596    0.1200
     50 H50        -2.5399    4.4718   51.1989 H       1  ZINC000451500596    0.1200
     51 H51        -4.8708    1.6033   52.2349 H       1  ZINC000451500596    0.1000
     52 H52        -4.0387    0.8993   50.8203 H       1  ZINC000451500596    0.0700
@<TRIPOS>BOND
     1     1     2    1
     2     1    29    1
     3     1    30    1
     4     1    31    1
     5     2     3    2
     6     2     4    2
     7     2     5   am
     8     5     6    1
     9     5    32    1
    10     6     7    1
    11     6    33    1
    12     6    34    1
    13     7     8    1
    14     7    12    1
    15     7     9    1
    16     9    10    1
    17     9    35    1
    18     9    36    1
    19    10    11    1
    20    10    37    1
    21    10    38    1
    22    11    12    1
    23    11    39    1
    24    11    40    1
    25    12    13    1
    26    12    14    1
    27    14    15   am
    28    14    41    1
    29    15    16    2
    30    15    17    1
    31    17    18    1
    32    17    28    1
    33    17    19    1
    34    19    20    1
    35    19    42    1
    36    19    43    1
    37    20    21    1
    38    20    44    1
    39    20    45    1
    40    21    22    1
    41    21    28    1
    42    22    27   ar
    43    22    23   ar
    44    23    24   ar
    45    23    46    1
    46    24    25   ar
    47    24    47    1
    48    25    26   ar
    49    25    48    1
    50    26    27   ar
    51    26    49    1
    52    27    50    1
    53    28    51    1
    54    28    52    1
@<TRIPOS>SUBSTRUCTURE
     1 ZINC000451500596        1 TEMP              0 ****  ****    0 ROOT


##########                                Name:    ZINC001015955459
##########                DOCK_Rotatable_Bonds:                   6
##########                         Heavy_Atoms:                  24
##########                    Molecular_Weight:             347.844
##########                DOCK_Rotatable_Bonds:                   6
##########                       Formal_Charge:          -0.0200002
##########                     HBond_Acceptors:                   6
##########                        HBond_Donors:                   1
##########                         Heavy_Atoms:                  24
##########                          Grid_Score:          -31.679104
##########                     Grid_vdw_energy:          -31.762661
##########                      Grid_es_energy:            0.083557
##########           Internal_energy_repulsive:           10.597246

@<TRIPOS>MOLECULE
ZINC001015955459
 46 48 1 0 0
SMALL
USER_CHARGES


@<TRIPOS>ATOM
      1 C1         -9.7660   -1.3413   54.9046 C.3     1  ZINC001015955459   -0.1500
      2 C2         -9.0782   -0.6068   53.7519 C.3     1  ZINC001015955459   -0.0300
      3 C3        -10.1350    0.0640   52.8719 C.3     1  ZINC001015955459   -0.1500
      4 C4         -8.1486    0.4410   54.3076 C.2     1  ZINC001015955459    0.0600
      5 C5         -7.1171    1.0388   53.6511 C.2     1  ZINC001015955459   -0.0800
      6 C6         -6.6978    0.7830   52.2612 C.2     1  ZINC001015955459    0.6100
      7 O7         -7.2085   -0.1215   51.6286 O.2     1  ZINC001015955459   -0.5300
      8 N8         -5.7485    1.5515   51.6913 N.am    1  ZINC001015955459   -0.7100
      9 C9         -5.3331    1.2984   50.3095 C.3     1  ZINC001015955459    0.1400
     10 H10        -5.9810    0.5514   49.8509 H       1  ZINC001015955459    0.1000
     11 C11        -5.3624    2.6069   49.4930 C.3     1  ZINC001015955459   -0.1300
     12 C12        -3.9067    2.8206   49.0254 C.3     1  ZINC001015955459    0.0200
     13 N13        -3.3050    1.4625   49.0423 N.3     1  ZINC001015955459   -0.4900
     14 C14        -1.8394    1.5369   49.1090 C.3     1  ZINC001015955459    0.0800
     15 C15        -1.2892    1.8435   47.7400 C.ar    1  ZINC001015955459   -0.1100
     16 C16        -0.6535    3.0482   47.5047 C.ar    1  ZINC001015955459   -0.1100
     17 C17        -0.1441    3.3282   46.2502 C.ar    1  ZINC001015955459   -0.1000
     18 C18        -0.2798    2.4082   45.2279 C.ar    1  ZINC001015955459   -0.1100
     19 C19        -0.9207    1.2044   45.4614 C.ar    1  ZINC001015955459   -0.0300
     20 Cl20       -1.0921    0.0484   44.1776 Cl      1  ZINC001015955459   -0.0700
     21 C21        -1.4254    0.9225   46.7182 C.ar    1  ZINC001015955459   -0.1000
     22 C22        -3.8625    0.8304   50.2688 C.3     1  ZINC001015955459    0.0100
     23 N23        -6.5421    1.9128   54.5211 N.2     1  ZINC001015955459   -0.4600
     24 C24        -7.1908    1.8613   55.6458 C.2     1  ZINC001015955459    0.1800
     25 O25        -8.1804    0.9628   55.5442 O.3     1  ZINC001015955459   -0.1900
     26 H26       -10.3362   -0.6288   55.5005 H       1  ZINC001015955459    0.0600
     27 H27       -10.4384   -2.0992   54.5026 H       1  ZINC001015955459    0.0700
     28 H28        -9.0132   -1.8192   55.5314 H       1  ZINC001015955459    0.0600
     29 H29        -8.5080   -1.3193   53.1558 H       1  ZINC001015955459    0.1300
     30 H30        -9.6450    0.5872   52.0508 H       1  ZINC001015955459    0.0600
     31 H31       -10.8074   -0.6940   52.4700 H       1  ZINC001015955459    0.0700
     32 H32       -10.7052    0.7763   53.4679 H       1  ZINC001015955459    0.0600
     33 H33        -5.3404    2.2722   52.1963 H       1  ZINC001015955459    0.4100
     34 H34        -6.0247    2.5022   48.6337 H       1  ZINC001015955459    0.0800
     35 H35        -5.6859    3.4375   50.1205 H       1  ZINC001015955459    0.0700
     36 H36        -3.8883    3.2321   48.0161 H       1  ZINC001015955459    0.0900
     37 H37        -3.3787    3.4791   49.7150 H       1  ZINC001015955459    0.0500
     38 H38        -1.5467    2.3247   49.8031 H       1  ZINC001015955459    0.0900
     39 H39        -1.4425    0.5822   49.4546 H       1  ZINC001015955459    0.0900
     40 H40        -0.5512    3.7693   48.3021 H       1  ZINC001015955459    0.1300
     41 H41         0.3561    4.2678   46.0680 H       1  ZINC001015955459    0.1300
     42 H42         0.1141    2.6290   44.2468 H       1  ZINC001015955459    0.1300
     43 H43        -1.9262   -0.0168   46.9010 H       1  ZINC001015955459    0.1300
     44 H44        -3.3283    1.1781   51.1530 H       1  ZINC001015955459    0.0700
     45 H45        -3.8113   -0.2560   50.1954 H       1  ZINC001015955459    0.0900
     46 H46        -6.9653    2.4462   56.5251 H       1  ZINC001015955459    0.2600
@<TRIPOS>BOND
     1     1     2    1
     2     1    26    1
     3     1    27    1
     4     1    28    1
     5     2     3    1
     6     2     4    1
     7     2    29    1
     8     3    30    1
     9     3    31    1
    10     3    32    1
    11     4    25    1
    12     4     5    2
    13     5     6    1
    14     5    23    1
    15     6     7    2
    16     6     8   am
    17     8     9    1
    18     8    33    1
    19     9    10    1
    20     9    22    1
    21     9    11    1
    22    11    12    1
    23    11    34    1
    24    11    35    1
    25    12    13    1
    26    12    36    1
    27    12    37    1
    28    13    14    1
    29    13    22    1
    30    14    15    1
    31    14    38    1
    32    14    39    1
    33    15    21   ar
    34    15    16   ar
    35    16    17   ar
    36    16    40    1
    37    17    18   ar
    38    17    41    1
    39    18    19   ar
    40    18    42    1
    41    19    20    1
    42    19    21   ar
    43    21    43    1
    44    22    44    1
    45    22    45    1
    46    23    24    2
    47    24    25    1
    48    24    46    1
@<TRIPOS>SUBSTRUCTURE
     1 ZINC001015955459        1 TEMP              0 ****  ****    0 ROOT


##########                                Name:    ZINC000558052810
##########                DOCK_Rotatable_Bonds:                   9
##########                         Heavy_Atoms:                  30
##########                    Molecular_Weight:             424.524
##########                DOCK_Rotatable_Bonds:                   9
##########                       Formal_Charge:          -0.0200002
##########                     HBond_Acceptors:                   8
##########                        HBond_Donors:                   1
##########                         Heavy_Atoms:                  30
##########                          Grid_Score:          -31.669657
##########                     Grid_vdw_energy:          -30.804604
##########                      Grid_es_energy:           -0.865053
##########           Internal_energy_repulsive:           12.461713

@<TRIPOS>MOLECULE
ZINC000558052810
 54 56 1 0 0
SMALL
USER_CHARGES


@<TRIPOS>ATOM
      1 C1         -4.9187    1.4018   50.2511 C.3     1  ZINC000558052810   -0.1700
      2 C2         -6.3742    0.9407   50.1516 C.3     1  ZINC000558052810    0.1100
      3 N3         -7.0676    1.2382   51.4073 N.am    1  ZINC000558052810   -0.6100
      4 C4         -7.7804    2.5081   51.5675 C.3     1  ZINC000558052810    0.0700
      5 C5         -7.0497    0.3437   52.4153 C.2     1  ZINC000558052810    0.5600
      6 O6         -6.4585   -0.7100   52.2823 O.2     1  ZINC000558052810   -0.5300
      7 C7         -7.7495    0.6439   53.6827 C.ar    1  ZINC000558052810   -0.1100
      8 C8         -7.0286    1.0868   54.7928 C.ar    1  ZINC000558052810   -0.1100
      9 C9         -7.6842    1.3663   55.9748 C.ar    1  ZINC000558052810   -0.1000
     10 C10        -9.0543    1.2087   56.0645 C.ar    1  ZINC000558052810   -0.1300
     11 C11        -9.7814    0.7678   54.9649 C.ar    1  ZINC000558052810    0.1400
     12 N12       -11.1679    0.6095   55.0610 N.am    1  ZINC000558052810   -0.6600
     13 C13       -11.7140   -0.6192   54.9681 C.2     1  ZINC000558052810    0.5600
     14 O14       -11.0012   -1.5903   54.8008 O.2     1  ZINC000558052810   -0.4800
     15 C15       -13.1746   -0.7859   55.0693 C.ar    1  ZINC000558052810   -0.1900
     16 C16       -13.9572   -0.9279   53.9178 C.ar    1  ZINC000558052810   -0.0200
     17 C17       -15.3243   -1.0816   54.0667 C.ar    1  ZINC000558052810   -0.1900
     18 C18       -15.8751   -1.0907   55.3359 C.ar    1  ZINC000558052810    0.1500
     19 N19       -15.1216   -0.9551   56.4093 N.ar    1  ZINC000558052810   -0.4900
     20 C20       -13.8073   -0.8111   56.3251 C.ar    1  ZINC000558052810    0.1600
     21 S21       -12.8491   -0.6337   57.7932 S.3     1  ZINC000558052810    0.0600
     22 C22       -12.3245   -2.3490   58.0352 C.3     1  ZINC000558052810   -0.0700
     23 C23       -13.4687   -3.1491   58.6025 C.2     1  ZINC000558052810   -0.2000
     24 C24       -14.1124   -2.9646   59.7799 C.2     1  ZINC000558052810   -0.0100
     25 C25       -13.8258   -1.9006   60.8079 C.3     1  ZINC000558052810   -0.0800
     26 O26       -15.0547   -3.9154   59.8502 O.3     1  ZINC000558052810    0.1000
     27 N27       -15.0433   -4.6257   58.8717 N.2     1  ZINC000558052810   -0.3600
     28 C28       -14.1229   -4.2619   58.0261 C.2     1  ZINC000558052810    0.0300
     29 C29       -13.8102   -4.9057   56.6998 C.3     1  ZINC000558052810   -0.0800
     30 C30        -9.1332    0.4909   53.7713 C.ar    1  ZINC000558052810   -0.0700
     31 H31        -4.8895    2.4755   50.4367 H       1  ZINC000558052810    0.0600
     32 H32        -4.4268    0.8778   51.0706 H       1  ZINC000558052810    0.0600
     33 H33        -4.4029    1.1804   49.3167 H       1  ZINC000558052810    0.0700
     34 H34        -6.8660    1.4646   49.3320 H       1  ZINC000558052810    0.0800
     35 H35        -6.4034   -0.1330   49.9659 H       1  ZINC000558052810    0.0800
     36 H36        -8.7869    2.4136   51.1600 H       1  ZINC000558052810    0.0600
     37 H37        -7.8392    2.7607   52.6261 H       1  ZINC000558052810    0.0800
     38 H38        -7.2454    3.2947   51.0354 H       1  ZINC000558052810    0.0700
     39 H39        -5.9577    1.2104   54.7270 H       1  ZINC000558052810    0.1400
     40 H40        -7.1245    1.7088   56.8327 H       1  ZINC000558052810    0.1400
     41 H41        -9.5617    1.4287   56.9922 H       1  ZINC000558052810    0.1300
     42 H42       -11.7364    1.3841   55.1943 H       1  ZINC000558052810    0.4100
     43 H43       -13.5052   -0.9174   52.9369 H       1  ZINC000558052810    0.1400
     44 H44       -15.9567   -1.1932   53.1985 H       1  ZINC000558052810    0.1500
     45 H45       -16.9424   -1.2107   55.4494 H       1  ZINC000558052810    0.1700
     46 H46       -12.0225   -2.7750   57.0785 H       1  ZINC000558052810    0.1000
     47 H47       -11.4829   -2.3774   58.7275 H       1  ZINC000558052810    0.1000
     48 H48       -14.4250   -1.0161   60.5920 H       1  ZINC000558052810    0.0900
     49 H49       -14.0771   -2.2765   61.7996 H       1  ZINC000558052810    0.0900
     50 H50       -12.7679   -1.6397   60.7755 H       1  ZINC000558052810    0.0900
     51 H51       -14.4070   -4.4356   55.9180 H       1  ZINC000558052810    0.0800
     52 H52       -12.7514   -4.7783   56.4748 H       1  ZINC000558052810    0.0800
     53 H53       -14.0463   -5.9688   56.7472 H       1  ZINC000558052810    0.0800
     54 H54        -9.6963    0.1484   52.9157 H       1  ZINC000558052810    0.1500
@<TRIPOS>BOND
     1     1     2    1
     2     1    31    1
     3     1    32    1
     4     1    33    1
     5     2     3    1
     6     2    34    1
     7     2    35    1
     8     3     4    1
     9     3     5   am
    10     4    36    1
    11     4    37    1
    12     4    38    1
    13     5     6    2
    14     5     7    1
    15     7    30   ar
    16     7     8   ar
    17     8     9   ar
    18     8    39    1
    19     9    10   ar
    20     9    40    1
    21    10    11   ar
    22    10    41    1
    23    11    12    1
    24    11    30   ar
    25    12    13   am
    26    12    42    1
    27    13    14    2
    28    13    15    1
    29    15    20   ar
    30    15    16   ar
    31    16    17   ar
    32    16    43    1
    33    17    18   ar
    34    17    44    1
    35    18    19   ar
    36    18    45    1
    37    19    20   ar
    38    20    21    1
    39    21    22    1
    40    22    23    1
    41    22    46    1
    42    22    47    1
    43    23    28    1
    44    23    24    2
    45    24    25    1
    46    24    26    1
    47    25    48    1
    48    25    49    1
    49    25    50    1
    50    26    27    1
    51    27    28    2
    52    28    29    1
    53    29    51    1
    54    29    52    1
    55    29    53    1
    56    30    54    1
@<TRIPOS>SUBSTRUCTURE
     1 ZINC000558052810        1 TEMP              0 ****  ****    0 ROOT


##########                                Name:    ZINC000011157684
##########                DOCK_Rotatable_Bonds:                   7
##########                         Heavy_Atoms:                  25
##########                    Molecular_Weight:             374.866
##########                DOCK_Rotatable_Bonds:                   7
##########                       Formal_Charge:           0.0400001
##########                     HBond_Acceptors:                   6
##########                        HBond_Donors:                   2
##########                         Heavy_Atoms:                  25
##########                          Grid_Score:          -31.666632
##########                     Grid_vdw_energy:          -30.585747
##########                      Grid_es_energy:           -1.080885
##########           Internal_energy_repulsive:            6.499384

@<TRIPOS>MOLECULE
ZINC000011157684
 41 43 1 0 0
SMALL
USER_CHARGES


@<TRIPOS>ATOM
      1 O1         -3.6749    3.6091   49.1856 O.2     1  ZINC000011157684   -0.5200
      2 C2         -4.0108    2.4443   49.1478 C.2     1  ZINC000011157684    0.5100
      3 C3         -5.2120    1.9807   49.9308 C.3     1  ZINC000011157684    0.1000
      4 N4         -4.7713    1.3897   51.1968 N.pl3   1  ZINC000011157684   -0.7300
      5 C5         -5.4654    1.6699   52.3787 C.ar    1  ZINC000011157684    0.2200
      6 C6         -4.9486    2.5819   53.2886 C.ar    1  ZINC000011157684   -0.1600
      7 C7         -5.6358    2.8577   54.4552 C.ar    1  ZINC000011157684   -0.0900
      8 C8         -6.8388    2.2250   54.7177 C.ar    1  ZINC000011157684    0.0500
      9 F9         -7.5084    2.4961   55.8593 F       1  ZINC000011157684   -0.1400
     10 C10        -7.3572    1.3149   53.8116 C.ar    1  ZINC000011157684   -0.0900
     11 C11        -6.6762    1.0398   52.6411 C.ar    1  ZINC000011157684   -0.0900
     12 Cl12       -7.3260   -0.1011   51.5054 Cl      1  ZINC000011157684   -0.0500
     13 N13        -3.3130    1.5656   48.4010 N.am    1  ZINC000011157684   -0.7200
     14 C14        -2.1453    2.0164   47.6399 C.3     1  ZINC000011157684    0.2600
     15 H15        -2.3057    3.0397   47.3002 H       1  ZINC000011157684    0.1200
     16 C16        -1.9450    1.1168   46.4475 C.2     1  ZINC000011157684   -0.1900
     17 C17        -2.2908    1.4134   45.1938 C.2     1  ZINC000011157684   -0.1200
     18 C18        -2.0078    0.4292   44.2624 C.2     1  ZINC000011157684   -0.1300
     19 C19        -1.4322   -0.6665   44.7597 C.2     1  ZINC000011157684   -0.2100
     20 S20        -1.2126   -0.4816   46.4950 S.3     1  ZINC000011157684    0.1100
     21 C21        -0.9223    1.9650   48.5190 C.ar    1  ZINC000011157684   -0.0900
     22 C22         0.1167    2.8525   48.3101 C.ar    1  ZINC000011157684   -0.1100
     23 C23         1.2386    2.8054   49.1165 C.ar    1  ZINC000011157684   -0.1100
     24 C24         1.3211    1.8711   50.1320 C.ar    1  ZINC000011157684   -0.1100
     25 C25         0.2816    0.9843   50.3414 C.ar    1  ZINC000011157684   -0.1100
     26 C26        -0.8420    1.0342   49.5378 C.ar    1  ZINC000011157684   -0.1000
     27 H27        -5.8635    2.8307   50.1340 H       1  ZINC000011157684    0.1000
     28 H28        -5.7573    1.2351   49.3521 H       1  ZINC000011157684    0.1000
     29 H29        -3.9983    0.8040   51.2155 H       1  ZINC000011157684    0.4200
     30 H30        -4.0098    3.0755   53.0850 H       1  ZINC000011157684    0.1400
     31 H31        -5.2339    3.5673   55.1631 H       1  ZINC000011157684    0.1400
     32 H32        -8.2961    0.8227   54.0182 H       1  ZINC000011157684    0.1500
     33 H33        -3.5840    0.6349   48.3677 H       1  ZINC000011157684    0.4000
     34 H34        -2.7566    2.3501   44.9259 H       1  ZINC000011157684    0.1400
     35 H35        -2.2361    0.5401   43.2126 H       1  ZINC000011157684    0.1400
     36 H36        -1.1420   -1.5332   44.1843 H       1  ZINC000011157684    0.1700
     37 H37         0.0523    3.5824   47.5167 H       1  ZINC000011157684    0.1200
     38 H38         2.0507    3.4983   48.9528 H       1  ZINC000011157684    0.1300
     39 H39         2.1979    1.8339   50.7616 H       1  ZINC000011157684    0.1300
     40 H40         0.3463    0.2542   51.1346 H       1  ZINC000011157684    0.1300
     41 H41        -1.6541    0.3413   49.7015 H       1  ZINC000011157684    0.1300
@<TRIPOS>BOND
     1     1     2    2
     2     2     3    1
     3     2    13   am
     4     3     4    1
     5     3    27    1
     6     3    28    1
     7     4     5    1
     8     4    29    1
     9     5    11   ar
    10     5     6   ar
    11     6     7   ar
    12     6    30    1
    13     7     8   ar
    14     7    31    1
    15     8     9    1
    16     8    10   ar
    17    10    11   ar
    18    10    32    1
    19    11    12    1
    20    13    14    1
    21    13    33    1
    22    14    15    1
    23    14    16    1
    24    14    21    1
    25    16    20    1
    26    16    17    2
    27    17    18    1
    28    17    34    1
    29    18    19    2
    30    18    35    1
    31    19    20    1
    32    19    36    1
    33    21    26   ar
    34    21    22   ar
    35    22    23   ar
    36    22    37    1
    37    23    24   ar
    38    23    38    1
    39    24    25   ar
    40    24    39    1
    41    25    26   ar
    42    25    40    1
    43    26    41    1
@<TRIPOS>SUBSTRUCTURE
     1 ZINC000011157684        1 TEMP              0 ****  ****    0 ROOT


##########                                Name:    ZINC000426805817
##########                DOCK_Rotatable_Bonds:                   6
##########                         Heavy_Atoms:                  26
##########                    Molecular_Weight:             412.286
##########                DOCK_Rotatable_Bonds:                   6
##########                       Formal_Charge:          -0.0100001
##########                     HBond_Acceptors:                   5
##########                        HBond_Donors:                   4
##########                         Heavy_Atoms:                  26
##########                          Grid_Score:          -31.665035
##########                     Grid_vdw_energy:          -30.727173
##########                      Grid_es_energy:           -0.937862
##########           Internal_energy_repulsive:            3.449354

@<TRIPOS>MOLECULE
ZINC000426805817
 44 47 1 0 0
SMALL
USER_CHARGES


@<TRIPOS>ATOM
      1 O1         -6.9532    3.3655   50.0579 O.co2   1  ZINC000426805817   -0.6300
      2 C2         -6.0888    2.5060   50.0332 C.2     1  ZINC000426805817    0.5000
      3 O3         -6.1042    1.6508   49.1643 O.co2   1  ZINC000426805817   -0.6800
      4 C4         -4.9979    2.5042   51.0728 C.3     1  ZINC000426805817   -0.0500
      5 H5         -4.5017    1.5336   51.0771 H       1  ZINC000426805817    0.1300
      6 C6         -3.9784    3.5967   50.7444 C.3     1  ZINC000426805817   -0.0500
      7 C7         -2.6101    2.9812   50.6036 C.2     1  ZINC000426805817   -0.1900
      8 C8         -1.7227    2.7734   51.5891 C.2     1  ZINC000426805817    0.0500
      9 N9         -0.5907    2.1949   51.0833 N.pl3   1  ZINC000426805817   -0.5900
     10 C10        -0.7254    2.0114   49.7247 C.ar    1  ZINC000426805817    0.1100
     11 C11         0.1054    1.4786   48.7451 C.ar    1  ZINC000426805817   -0.1200
     12 C12        -0.3196    1.4292   47.4356 C.ar    1  ZINC000426805817   -0.0700
     13 C13        -1.5741    1.9074   47.0797 C.ar    1  ZINC000426805817   -0.1100
     14 Br14       -2.1333    1.8278   45.2750 Br      1  ZINC000426805817   -0.0400
     15 C15        -2.4131    2.4386   48.0339 C.ar    1  ZINC000426805817   -0.0400
     16 C16        -1.9987    2.4901   49.3661 C.ar    1  ZINC000426805817   -0.1000
     17 N17        -5.5821    2.7611   52.3960 N.4     1  ZINC000426805817   -0.4800
     18 H18        -5.1396    3.5691   52.8078 H       1  ZINC000426805817    0.4000
     19 H19        -6.5717    2.9324   52.2993 H       1  ZINC000426805817    0.4200
     20 C20        -5.3696    1.5926   53.2605 C.3     1  ZINC000426805817    0.0400
     21 C21        -6.6723    0.8563   53.4389 C.ar    1  ZINC000426805817   -0.1600
     22 C22        -7.3225    0.8767   54.6683 C.ar    1  ZINC000426805817    0.1100
     23 N23        -7.0385    1.4628   55.8814 N.pl3   1  ZINC000426805817   -0.5900
     24 C24        -8.0242    1.1668   56.7832 C.2     1  ZINC000426805817    0.0600
     25 C25        -8.9593    0.3980   56.2032 C.2     1  ZINC000426805817   -0.2000
     26 C26        -8.5382    0.1839   54.8167 C.ar    1  ZINC000426805817   -0.1100
     27 C27        -9.0785   -0.5140   53.7352 C.ar    1  ZINC000426805817   -0.0400
     28 C28        -8.4228   -0.5208   52.5362 C.ar    1  ZINC000426805817   -0.1500
     29 C29        -7.2260    0.1653   52.3833 C.ar    1  ZINC000426805817   -0.0700
     30 H30        -4.2559    4.0835   49.8095 H       1  ZINC000426805817    0.1200
     31 H31        -3.9644    4.3337   51.5475 H       1  ZINC000426805817    0.0900
     32 H32        -1.8791    3.0258   52.6274 H       1  ZINC000426805817    0.1700
     33 H33         0.1904    1.9503   51.6039 H       1  ZINC000426805817    0.4200
     34 H34         1.0831    1.1042   49.0105 H       1  ZINC000426805817    0.1300
     35 H35         0.3292    1.0149   46.6783 H       1  ZINC000426805817    0.1400
     36 H36        -3.3880    2.8096   47.7538 H       1  ZINC000426805817    0.1400
     37 H37        -4.6372    0.9290   52.8009 H       1  ZINC000426805817    0.1500
     38 H38        -5.0022    1.9217   54.2325 H       1  ZINC000426805817    0.1300
     39 H39        -6.2559    2.0044   56.0690 H       1  ZINC000426805817    0.4300
     40 H40        -8.0464    1.5021   57.8095 H       1  ZINC000426805817    0.1800
     41 H41        -9.8525    0.0104   56.6705 H       1  ZINC000426805817    0.1500
     42 H42       -10.0113   -1.0471   53.8457 H       1  ZINC000426805817    0.1300
     43 H43        -8.8412   -1.0610   51.6998 H       1  ZINC000426805817    0.1300
     44 H44        -6.7195    0.1505   51.4295 H       1  ZINC000426805817    0.1300
@<TRIPOS>BOND
     1     1     2   ar
     2     2     3   ar
     3     2     4    1
     4     4     5    1
     5     4     6    1
     6     4    17    1
     7     6     7    1
     8     6    30    1
     9     6    31    1
    10     7    16    1
    11     7     8    2
    12     8     9    1
    13     8    32    1
    14     9    10    1
    15     9    33    1
    16    10    16   ar
    17    10    11   ar
    18    11    12   ar
    19    11    34    1
    20    12    13   ar
    21    12    35    1
    22    13    14    1
    23    13    15   ar
    24    15    16   ar
    25    15    36    1
    26    17    18    1
    27    17    19    1
    28    17    20    1
    29    20    21    1
    30    20    37    1
    31    20    38    1
    32    21    29   ar
    33    21    22   ar
    34    22    26   ar
    35    22    23    1
    36    23    24    1
    37    23    39    1
    38    24    25    2
    39    24    40    1
    40    25    26    1
    41    25    41    1
    42    26    27   ar
    43    27    28   ar
    44    27    42    1
    45    28    29   ar
    46    28    43    1
    47    29    44    1
@<TRIPOS>SUBSTRUCTURE
     1 ZINC000426805817        1 TEMP              0 ****  ****    0 ROOT


##########                                Name:    ZINC000432058199
##########                DOCK_Rotatable_Bonds:                   5
##########                         Heavy_Atoms:                  30
##########                    Molecular_Weight:             406.441
##########                DOCK_Rotatable_Bonds:                   5
##########                       Formal_Charge:        -4.02331e-07
##########                     HBond_Acceptors:                   8
##########                        HBond_Donors:                   1
##########                         Heavy_Atoms:                  30
##########                          Grid_Score:          -31.652912
##########                     Grid_vdw_energy:          -31.135319
##########                      Grid_es_energy:           -0.517594
##########           Internal_energy_repulsive:           16.619411

@<TRIPOS>MOLECULE
ZINC000432058199
 52 55 1 0 0
SMALL
USER_CHARGES


@<TRIPOS>ATOM
      1 C1         -7.3993    0.3081   65.0076 C.3     1  ZINC000432058199    0.0300
      2 O2         -7.6303   -0.4562   63.8225 O.3     1  ZINC000432058199   -0.3100
      3 C3         -8.8476   -0.3267   63.2323 C.ar    1  ZINC000432058199    0.1300
      4 C4         -9.7815    0.5572   63.7546 C.ar    1  ZINC000432058199   -0.1900
      5 C5        -11.0209    0.6921   63.1573 C.ar    1  ZINC000432058199   -0.0800
      6 C6        -11.3365   -0.0516   62.0381 C.ar    1  ZINC000432058199   -0.1100
      7 C7        -10.4042   -0.9410   61.5070 C.ar    1  ZINC000432058199    0.0100
      8 C8        -10.7410   -1.7416   60.3033 C.2     1  ZINC000432058199    0.2100
      9 N9        -10.0444   -2.7321   59.8101 N.2     1  ZINC000432058199   -0.3700
     10 O10       -10.5911   -3.1747   58.8219 O.3     1  ZINC000432058199    0.1200
     11 C11       -11.7169   -2.4962   58.5791 C.2     1  ZINC000432058199    0.1600
     12 C12       -12.6806   -2.7376   57.4459 C.3     1  ZINC000432058199    0.2500
     13 H13       -13.6703   -2.3783   57.7279 H       1  ZINC000432058199    0.1500
     14 C14       -12.7487   -4.2361   57.1447 C.3     1  ZINC000432058199   -0.1700
     15 N15       -12.2220   -2.0202   56.2537 N.am    1  ZINC000432058199   -0.5800
     16 C16       -12.8963   -1.0221   55.6713 C.2     1  ZINC000432058199    0.7000
     17 O17       -13.9650   -0.6047   56.0721 O.2     1  ZINC000432058199   -0.5100
     18 N18       -12.2591   -0.5322   54.5927 N.am    1  ZINC000432058199   -0.7200
     19 C19       -11.0133   -1.3057   54.4517 C.3     1  ZINC000432058199    0.1400
     20 H20       -10.9976   -1.8375   53.5004 H       1  ZINC000432058199    0.1400
     21 C21        -9.8123   -0.4034   54.5728 C.ar    1  ZINC000432058199   -0.1000
     22 C22        -9.4042    0.0407   55.8168 C.ar    1  ZINC000432058199   -0.1000
     23 C23        -8.3026    0.8684   55.9279 C.ar    1  ZINC000432058199   -0.0800
     24 C24        -7.8580    1.3530   57.2837 C.3     1  ZINC000432058199   -0.1200
     25 C25        -7.6086    1.2511   54.7953 C.ar    1  ZINC000432058199   -0.1100
     26 C26        -8.0165    0.8066   53.5515 C.ar    1  ZINC000432058199   -0.0800
     27 C27        -7.2602    1.2244   52.3167 C.3     1  ZINC000432058199   -0.1200
     28 C28        -9.1156   -0.0244   53.4408 C.ar    1  ZINC000432058199   -0.1000
     29 C29       -11.0661   -2.2804   55.6115 C.2     1  ZINC000432058199    0.5300
     30 O30       -10.2426   -3.1226   55.8983 O.2     1  ZINC000432058199   -0.4500
     31 N31       -11.8285   -1.5867   59.5149 N.2     1  ZINC000432058199   -0.4500
     32 C32        -9.1542   -1.0727   62.1058 C.ar    1  ZINC000432058199   -0.1200
     33 H33        -6.3922    0.1125   65.3756 H       1  ZINC000432058199    0.1000
     34 H34        -7.5038    1.3694   64.7817 H       1  ZINC000432058199    0.0600
     35 H35        -8.1259    0.0256   65.7695 H       1  ZINC000432058199    0.0600
     36 H36        -9.5394    1.1410   64.6303 H       1  ZINC000432058199    0.1400
     37 H37       -11.7445    1.3810   63.5677 H       1  ZINC000432058199    0.1400
     38 H38       -12.3059    0.0556   61.5741 H       1  ZINC000432058199    0.1400
     39 H39       -11.7590   -4.5953   56.8627 H       1  ZINC000432058199    0.0900
     40 H40       -13.0898   -4.7699   58.0318 H       1  ZINC000432058199    0.0900
     41 H41       -13.4458   -4.4105   56.3251 H       1  ZINC000432058199    0.0900
     42 H42       -12.5612    0.1894   54.0190 H       1  ZINC000432058199    0.4500
     43 H43        -9.9462   -0.2587   56.7016 H       1  ZINC000432058199    0.1200
     44 H44        -7.1422    0.6471   57.7051 H       1  ZINC000432058199    0.0700
     45 H45        -7.3878    2.3312   57.1838 H       1  ZINC000432058199    0.0700
     46 H46        -8.7223    1.4310   57.9431 H       1  ZINC000432058199    0.0700
     47 H47        -6.7480    1.8978   54.8821 H       1  ZINC000432058199    0.1300
     48 H48        -6.4694    0.5024   52.1135 H       1  ZINC000432058199    0.0700
     49 H49        -7.9433    1.2636   51.4683 H       1  ZINC000432058199    0.0700
     50 H50        -6.8210    2.2093   52.4755 H       1  ZINC000432058199    0.0700
     51 H51        -9.4342   -0.3717   52.4691 H       1  ZINC000432058199    0.1300
     52 H52        -8.4283   -1.7607   61.6980 H       1  ZINC000432058199    0.1400
@<TRIPOS>BOND
     1     1     2    1
     2     1    33    1
     3     1    34    1
     4     1    35    1
     5     2     3    1
     6     3    32   ar
     7     3     4   ar
     8     4     5   ar
     9     4    36    1
    10     5     6   ar
    11     5    37    1
    12     6     7   ar
    13     6    38    1
    14     7     8    1
    15     7    32   ar
    16     8    31    1
    17     8     9    2
    18     9    10    1
    19    10    11    1
    20    11    12    1
    21    11    31    2
    22    12    13    1
    23    12    14    1
    24    12    15    1
    25    14    39    1
    26    14    40    1
    27    14    41    1
    28    15    29   am
    29    15    16   am
    30    16    17    2
    31    16    18   am
    32    18    19    1
    33    18    42    1
    34    19    20    1
    35    19    21    1
    36    19    29    1
    37    21    28   ar
    38    21    22   ar
    39    22    23   ar
    40    22    43    1
    41    23    24    1
    42    23    25   ar
    43    24    44    1
    44    24    45    1
    45    24    46    1
    46    25    26   ar
    47    25    47    1
    48    26    27    1
    49    26    28   ar
    50    27    48    1
    51    27    49    1
    52    27    50    1
    53    28    51    1
    54    29    30    2
    55    32    52    1
@<TRIPOS>SUBSTRUCTURE
     1 ZINC000432058199        1 TEMP              0 ****  ****    0 ROOT


##########                                Name:    ZINC000486710336
##########                DOCK_Rotatable_Bonds:                   6
##########                         Heavy_Atoms:                  31
##########                    Molecular_Weight:             420.555
##########                DOCK_Rotatable_Bonds:                   6
##########                       Formal_Charge:         1.49012e-07
##########                     HBond_Acceptors:                   6
##########                        HBond_Donors:                   1
##########                         Heavy_Atoms:                  31
##########                          Grid_Score:          -31.651171
##########                     Grid_vdw_energy:          -31.551481
##########                      Grid_es_energy:           -0.099690
##########           Internal_energy_repulsive:           61.723717

@<TRIPOS>MOLECULE
ZINC000486710336
 63 67 1 0 0
SMALL
USER_CHARGES


@<TRIPOS>ATOM
      1 C1        -10.6993    1.4546   54.1905 C.3     1  ZINC000486710336    0.1000
      2 N2         -9.2693    1.2501   53.9468 N.pl3   1  ZINC000486710336   -0.3900
      3 N3         -8.5733    1.5948   52.7811 N.2     1  ZINC000486710336   -0.2800
      4 C4         -7.3177    1.2601   52.9349 C.2     1  ZINC000486710336    0.1000
      5 C5         -6.2228    1.4562   51.9180 C.3     1  ZINC000486710336   -0.0100
      6 C6         -6.8049    1.4309   50.4830 C.3     1  ZINC000486710336   -0.1200
      7 C7         -5.7473    2.2194   49.6712 C.3     1  ZINC000486710336   -0.1200
      8 C8         -5.3051    3.3497   50.6234 C.3     1  ZINC000486710336   -0.1200
      9 C9         -5.6074    2.8643   52.0520 C.3     1  ZINC000486710336   -0.1100
     10 C10        -7.1637    0.6902   54.2009 C.2     1  ZINC000486710336   -0.2600
     11 C11        -8.3806    0.6976   54.8131 C.2     1  ZINC000486710336    0.3000
     12 N12        -8.6632    0.2194   56.0895 N.am    1  ZINC000486710336   -0.6200
     13 C13        -7.9259    0.6285   57.1408 C.2     1  ZINC000486710336    0.5100
     14 O14        -7.0143    1.4128   56.9746 O.2     1  ZINC000486710336   -0.4800
     15 C15        -8.2301    0.1170   58.5101 C.2     1  ZINC000486710336    0.5300
     16 O16        -7.7079    0.6285   59.4789 O.2     1  ZINC000486710336   -0.5100
     17 N17        -9.0846   -0.9129   58.6705 N.am    1  ZINC000486710336   -0.5800
     18 C18        -9.7866   -1.6326   57.5925 C.3     1  ZINC000486710336    0.1000
     19 C19       -10.6778   -2.7014   58.2633 C.3     1  ZINC000486710336   -0.0600
     20 H20       -10.1701   -3.6655   58.2920 H       1  ZINC000486710336    0.1000
     21 C21       -12.0010   -2.8174   57.5513 C.ar    1  ZINC000486710336   -0.0700
     22 C22       -13.0839   -3.3879   58.1937 C.ar    1  ZINC000486710336   -0.1100
     23 C23       -14.2975   -3.4944   57.5407 C.ar    1  ZINC000486710336   -0.1200
     24 C24       -14.4284   -3.0299   56.2453 C.ar    1  ZINC000486710336   -0.1200
     25 C25       -13.3458   -2.4587   55.6031 C.ar    1  ZINC000486710336   -0.1200
     26 C26       -12.1333   -2.3483   56.2577 C.ar    1  ZINC000486710336   -0.1100
     27 C27       -10.8679   -2.1332   59.7032 C.3     1  ZINC000486710336   -0.0800
     28 H28       -11.1166   -2.9048   60.4318 H       1  ZINC000486710336    0.1100
     29 C29       -11.9462   -1.0519   59.6073 C.3     1  ZINC000486710336   -0.1100
     30 C30       -11.9216   -0.1547   60.8425 C.3     1  ZINC000486710336   -0.1200
     31 C31       -10.5621    0.5492   60.9106 C.3     1  ZINC000486710336   -0.1100
     32 C32        -9.4764   -0.5127   61.0856 C.3     1  ZINC000486710336   -0.1400
     33 C33        -9.4748   -1.5184   59.9464 C.3     1  ZINC000486710336    0.1400
     34 H34        -8.7590   -2.3067   60.1801 H       1  ZINC000486710336    0.0800
     35 H35       -10.8546    2.4355   54.6398 H       1  ZINC000486710336    0.0800
     36 H36       -11.2406    1.3976   53.2463 H       1  ZINC000486710336    0.1000
     37 H37       -11.0665    0.6829   54.8671 H       1  ZINC000486710336    0.0800
     38 H38        -5.4546    0.6916   52.0339 H       1  ZINC000486710336    0.0900
     39 H39        -6.8878    0.4072   50.1177 H       1  ZINC000486710336    0.0700
     40 H40        -7.7714    1.9337   50.4492 H       1  ZINC000486710336    0.0800
     41 H41        -4.9019    1.5781   49.4218 H       1  ZINC000486710336    0.0700
     42 H42        -6.1922    2.6346   48.7669 H       1  ZINC000486710336    0.0700
     43 H43        -4.2371    3.5364   50.5107 H       1  ZINC000486710336    0.0600
     44 H44        -5.8679    4.2585   50.4109 H       1  ZINC000486710336    0.0600
     45 H45        -6.3170    3.5379   52.5327 H       1  ZINC000486710336    0.0700
     46 H46        -4.6862    2.8157   52.6326 H       1  ZINC000486710336    0.0700
     47 H47        -6.2427    0.3142   54.6212 H       1  ZINC000486710336    0.1700
     48 H48        -9.3908   -0.4081   56.2222 H       1  ZINC000486710336    0.4200
     49 H49       -10.4047   -0.9379   57.0238 H       1  ZINC000486710336    0.0900
     50 H50        -9.0626   -2.1131   56.9345 H       1  ZINC000486710336    0.0800
     51 H51       -12.9815   -3.7508   59.2058 H       1  ZINC000486710336    0.1200
     52 H52       -15.1433   -3.9407   58.0424 H       1  ZINC000486710336    0.1200
     53 H53       -15.3765   -3.1137   55.7348 H       1  ZINC000486710336    0.1200
     54 H54       -13.4480   -2.0961   54.5909 H       1  ZINC000486710336    0.1200
     55 H55       -11.2874   -1.9020   55.7560 H       1  ZINC000486710336    0.1200
     56 H56       -11.7684   -0.4453   58.7194 H       1  ZINC000486710336    0.0700
     57 H57       -12.9243   -1.5263   59.5275 H       1  ZINC000486710336    0.0700
     58 H58       -12.7153    0.5889   60.7702 H       1  ZINC000486710336    0.0600
     59 H59       -12.0651   -0.7604   61.7374 H       1  ZINC000486710336    0.0600
     60 H60       -10.3888    1.1027   59.9878 H       1  ZINC000486710336    0.0500
     61 H61       -10.5455    1.2340   61.7585 H       1  ZINC000486710336    0.0600
     62 H62        -8.5030   -0.0243   61.1291 H       1  ZINC000486710336    0.1000
     63 H63        -9.6481   -1.0485   62.0191 H       1  ZINC000486710336    0.0700
@<TRIPOS>BOND
     1     1     2    1
     2     1    35    1
     3     1    36    1
     4     1    37    1
     5     2    11    1
     6     2     3    1
     7     3     4    2
     8     4     5    1
     9     4    10    1
    10     5     9    1
    11     5     6    1
    12     5    38    1
    13     6     7    1
    14     6    39    1
    15     6    40    1
    16     7     8    1
    17     7    41    1
    18     7    42    1
    19     8     9    1
    20     8    43    1
    21     8    44    1
    22     9    45    1
    23     9    46    1
    24    10    11    2
    25    10    47    1
    26    11    12    1
    27    12    13   am
    28    12    48    1
    29    13    14    2
    30    13    15    1
    31    15    16    2
    32    15    17   am
    33    17    33    1
    34    17    18    1
    35    18    19    1
    36    18    49    1
    37    18    50    1
    38    19    20    1
    39    19    21    1
    40    19    27    1
    41    21    26   ar
    42    21    22   ar
    43    22    23   ar
    44    22    51    1
    45    23    24   ar
    46    23    52    1
    47    24    25   ar
    48    24    53    1
    49    25    26   ar
    50    25    54    1
    51    26    55    1
    52    27    28    1
    53    27    33    1
    54    27    29    1
    55    29    30    1
    56    29    56    1
    57    29    57    1
    58    30    31    1
    59    30    58    1
    60    30    59    1
    61    31    32    1
    62    31    60    1
    63    31    61    1
    64    32    33    1
    65    32    62    1
    66    32    63    1
    67    33    34    1
@<TRIPOS>SUBSTRUCTURE
     1 ZINC000486710336        1 TEMP              0 ****  ****    0 ROOT


##########                                Name:    ZINC000821214121
##########                DOCK_Rotatable_Bonds:                  10
##########                         Heavy_Atoms:                  23
##########                    Molecular_Weight:             338.434
##########                DOCK_Rotatable_Bonds:                  10
##########                       Formal_Charge:          0.00999954
##########                     HBond_Acceptors:                   9
##########                        HBond_Donors:                   3
##########                         Heavy_Atoms:                  23
##########                          Grid_Score:          -31.638748
##########                     Grid_vdw_energy:          -28.375341
##########                      Grid_es_energy:           -3.263407
##########           Internal_energy_repulsive:           10.026509

@<TRIPOS>MOLECULE
ZINC000821214121
 45 46 1 0 0
SMALL
USER_CHARGES


@<TRIPOS>ATOM
      1 C1        -13.4919   -4.6722   56.1713 C.3     1  ZINC000821214121   -0.1500
      2 C2        -13.8454   -4.9247   57.6383 C.3     1  ZINC000821214121    0.0500
      3 N3        -13.6489   -3.6896   58.4089 N.3     1  ZINC000821214121   -0.5200
      4 C4        -14.5689   -3.6306   59.5526 C.3     1  ZINC000821214121    0.0600
      5 C5        -14.8040   -2.1701   59.9433 C.3     1  ZINC000821214121   -0.1200
      6 C6        -15.6297   -1.4781   58.8570 C.3     1  ZINC000821214121    0.0800
      7 O7        -16.9675   -1.9799   58.8833 O.3     1  ZINC000821214121   -0.5700
      8 C8        -12.2534   -3.5599   58.8488 C.3     1  ZINC000821214121    0.0400
      9 C9        -11.6214   -2.3714   58.1712 C.2     1  ZINC000821214121    0.5000
     10 O10       -12.2389   -1.3322   58.0692 O.2     1  ZINC000821214121   -0.4800
     11 N11       -10.3702   -2.4628   57.6788 N.am    1  ZINC000821214121   -0.6300
     12 C12        -9.7852   -1.3631   57.0537 C.2     1  ZINC000821214121    0.0800
     13 C13        -9.0832   -0.3794   57.6843 C.2     1  ZINC000821214121   -0.1000
     14 C14        -8.8536   -0.3639   59.1489 C.2     1  ZINC000821214121    0.2900
     15 N15        -7.8798   -0.9797   59.7946 N.2     1  ZINC000821214121   -0.3300
     16 N16        -8.0686   -0.6785   61.1535 N.pl3   1  ZINC000821214121   -0.2900
     17 N17        -9.1111    0.0754   61.2346 N.2     1  ZINC000821214121    0.0200
     18 N18        -9.5909    0.2810   60.0596 N.2     1  ZINC000821214121   -0.2900
     19 C19        -8.6001    0.6113   56.8296 C.2     1  ZINC000821214121   -0.0500
     20 C20        -7.7989    1.7874   57.3255 C.3     1  ZINC000821214121   -0.1000
     21 C21        -8.8979    0.4414   55.5459 C.2     1  ZINC000821214121   -0.2400
     22 C22        -8.4885    1.3747   54.4356 C.3     1  ZINC000821214121   -0.0800
     23 S23        -9.8312   -1.0318   55.3273 S.3     1  ZINC000821214121    0.2600
     24 H24       -14.0672   -3.8241   55.7997 H       1  ZINC000821214121    0.0700
     25 H25       -12.4273   -4.4542   56.0863 H       1  ZINC000821214121    0.0500
     26 H26       -13.7295   -5.5583   55.5826 H       1  ZINC000821214121    0.0600
     27 H27       -14.8869   -5.2374   57.7125 H       1  ZINC000821214121    0.0900
     28 H28       -13.2015   -5.7084   58.0375 H       1  ZINC000821214121    0.0400
     29 H29       -15.5184   -4.0910   59.2792 H       1  ZINC000821214121    0.0400
     30 H30       -14.1346   -4.1670   60.3963 H       1  ZINC000821214121    0.0800
     31 H31       -15.3423   -2.1294   60.8902 H       1  ZINC000821214121    0.0800
     32 H32       -13.8447   -1.6633   60.0486 H       1  ZINC000821214121    0.0700
     33 H33       -15.6412   -0.4035   59.0385 H       1  ZINC000821214121    0.0400
     34 H34       -15.1862   -1.6772   57.8814 H       1  ZINC000821214121    0.0500
     35 H35       -17.0297   -2.9397   58.7822 H       1  ZINC000821214121    0.3800
     36 H36       -12.2245   -3.4199   59.9294 H       1  ZINC000821214121    0.0700
     37 H37       -11.7037   -4.4634   58.5848 H       1  ZINC000821214121    0.1200
     38 H38        -9.8768   -3.2941   57.7594 H       1  ZINC000821214121    0.4200
     39 H39        -7.5179   -0.9814   61.8923 H       1  ZINC000821214121    0.4700
     40 H40        -6.7385    1.5352   57.3144 H       1  ZINC000821214121    0.0700
     41 H41        -7.9750    2.6460   56.6777 H       1  ZINC000821214121    0.0700
     42 H42        -8.1037    2.0315   58.3431 H       1  ZINC000821214121    0.0900
     43 H43        -7.5226    1.0642   54.0376 H       1  ZINC000821214121    0.0700
     44 H44        -9.2351    1.3447   53.6420 H       1  ZINC000821214121    0.0700
     45 H45        -8.4120    2.3901   54.8243 H       1  ZINC000821214121    0.0800
@<TRIPOS>BOND
     1     1     2    1
     2     1    24    1
     3     1    25    1
     4     1    26    1
     5     2     3    1
     6     2    27    1
     7     2    28    1
     8     3     4    1
     9     3     8    1
    10     4     5    1
    11     4    29    1
    12     4    30    1
    13     5     6    1
    14     5    31    1
    15     5    32    1
    16     6     7    1
    17     6    33    1
    18     6    34    1
    19     7    35    1
    20     8     9    1
    21     8    36    1
    22     8    37    1
    23     9    10    2
    24     9    11   am
    25    11    12    1
    26    11    38    1
    27    12    23    1
    28    12    13    2
    29    13    14    1
    30    13    19    1
    31    14    18    1
    32    14    15    2
    33    15    16    1
    34    16    17    1
    35    16    39    1
    36    17    18    2
    37    19    20    1
    38    19    21    2
    39    20    40    1
    40    20    41    1
    41    20    42    1
    42    21    22    1
    43    21    23    1
    44    22    43    1
    45    22    44    1
    46    22    45    1
@<TRIPOS>SUBSTRUCTURE
     1 ZINC000821214121        1 TEMP              0 ****  ****    0 ROOT


##########                                Name:    ZINC000587344575
##########                DOCK_Rotatable_Bonds:                   7
##########                         Heavy_Atoms:                  30
##########                    Molecular_Weight:             408.475
##########                DOCK_Rotatable_Bonds:                   7
##########                       Formal_Charge:          -0.0100002
##########                     HBond_Acceptors:                   7
##########                        HBond_Donors:                   2
##########                         Heavy_Atoms:                  30
##########                          Grid_Score:          -31.633858
##########                     Grid_vdw_energy:          -31.355209
##########                      Grid_es_energy:           -0.278649
##########           Internal_energy_repulsive:           14.949086

@<TRIPOS>MOLECULE
ZINC000587344575
 55 57 1 0 0
SMALL
USER_CHARGES


@<TRIPOS>ATOM
      1 C1         -8.8124   -1.3795   60.4174 C.3     1  ZINC000587344575   -0.1200
      2 C2         -9.2136   -0.8046   59.0834 C.ar    1  ZINC000587344575    0.0000
      3 C3         -8.4067    0.1207   58.4611 C.ar    1  ZINC000587344575   -0.1600
      4 C4         -8.7761    0.6516   57.2291 C.ar    1  ZINC000587344575    0.1800
      5 N5         -7.9561    1.5885   56.6012 N.am    1  ZINC000587344575   -0.6700
      6 C6         -7.3690    1.2896   55.4254 C.2     1  ZINC000587344575    0.5200
      7 O7         -7.5538    0.2058   54.9136 O.2     1  ZINC000587344575   -0.5000
      8 C8         -6.4827    2.3021   54.7468 C.3     1  ZINC000587344575   -0.1200
      9 H9         -5.8271    2.7788   55.4755 H       1  ZINC000587344575    0.1100
     10 C10        -7.3399    3.3642   54.0207 C.3     1  ZINC000587344575   -0.1200
     11 C11        -6.5508    3.6093   52.7100 C.3     1  ZINC000587344575    0.0400
     12 N12        -6.0469    2.2569   52.3587 N.3     1  ZINC000587344575   -0.4800
     13 C13        -4.9624    2.3387   51.4877 C.ar    1  ZINC000587344575    0.0700
     14 C14        -3.7962    2.9805   51.8903 C.ar    1  ZINC000587344575   -0.1200
     15 C15        -2.7222    3.0638   51.0321 C.ar    1  ZINC000587344575   -0.0700
     16 C16        -2.8040    2.5023   49.7549 C.ar    1  ZINC000587344575    0.0000
     17 C17        -1.6885    2.5873   48.8610 C.1     1  ZINC000587344575    0.2500
     18 N18        -0.8037    2.6547   48.1519 N.1     1  ZINC000587344575   -0.4000
     19 C19        -3.9775    1.8569   49.3519 C.ar    1  ZINC000587344575   -0.1000
     20 C20        -5.0467    1.7723   50.2171 C.ar    1  ZINC000587344575    0.1300
     21 F21        -6.1809    1.1488   49.8297 F       1  ZINC000587344575   -0.1200
     22 C22        -5.6511    1.6279   53.6400 C.3     1  ZINC000587344575    0.0500
     23 C23        -9.9615    0.2495   56.6221 C.ar    1  ZINC000587344575   -0.1400
     24 C24       -10.7733   -0.6758   57.2391 C.ar    1  ZINC000587344575   -0.0600
     25 C25       -10.4026   -1.2148   58.4739 C.ar    1  ZINC000587344575   -0.1600
     26 C26       -11.2701   -2.2073   59.1380 C.2     1  ZINC000587344575    0.5600
     27 O27       -10.9464   -3.3790   59.1609 O.2     1  ZINC000587344575   -0.5300
     28 N28       -12.4210   -1.8146   59.7190 N.am    1  ZINC000587344575   -0.7200
     29 C29       -13.2812   -2.7994   60.3797 C.3     1  ZINC000587344575    0.1400
     30 C30       -14.2586   -2.0796   61.3111 C.3     1  ZINC000587344575   -0.1600
     31 C31       -14.0651   -3.5818   59.3240 C.3     1  ZINC000587344575   -0.1600
     32 H32        -8.3149   -2.3373   60.2655 H       1  ZINC000587344575    0.0800
     33 H33        -8.1316   -0.6920   60.9193 H       1  ZINC000587344575    0.0600
     34 H34        -9.7006   -1.5248   61.0324 H       1  ZINC000587344575    0.1000
     35 H35        -7.4859    0.4353   58.9298 H       1  ZINC000587344575    0.1300
     36 H36        -7.8083    2.4553   57.0106 H       1  ZINC000587344575    0.4100
     37 H37        -8.3350    2.9751   53.8047 H       1  ZINC000587344575    0.0900
     38 H38        -7.4019    4.2788   54.6103 H       1  ZINC000587344575    0.0900
     39 H39        -7.2099    3.9891   51.9293 H       1  ZINC000587344575    0.0900
     40 H40        -5.7219    4.2958   52.8827 H       1  ZINC000587344575    0.0600
     41 H41        -3.7328    3.4145   52.8773 H       1  ZINC000587344575    0.1400
     42 H42        -1.8174    3.5631   51.3458 H       1  ZINC000587344575    0.1400
     43 H43        -4.0440    1.4218   48.3657 H       1  ZINC000587344575    0.1500
     44 H44        -4.5883    1.7897   53.8204 H       1  ZINC000587344575    0.0600
     45 H45        -5.8672    0.5599   53.6117 H       1  ZINC000587344575    0.1100
     46 H46       -10.2456    0.6638   55.6660 H       1  ZINC000587344575    0.1400
     47 H47       -11.6935   -0.9875   56.7674 H       1  ZINC000587344575    0.1300
     48 H48       -12.6799   -0.8800   59.6997 H       1  ZINC000587344575    0.4000
     49 H49       -12.6666   -3.4876   60.9598 H       1  ZINC000587344575    0.0900
     50 H50       -14.8734   -1.3914   60.7309 H       1  ZINC000587344575    0.0600
     51 H51       -14.8986   -2.8123   61.8027 H       1  ZINC000587344575    0.0700
     52 H52       -13.7002   -1.5222   62.0633 H       1  ZINC000587344575    0.0600
     53 H53       -14.6799   -2.8935   58.7438 H       1  ZINC000587344575    0.0600
     54 H54       -13.3689   -4.0945   58.6605 H       1  ZINC000587344575    0.0600
     55 H55       -14.7051   -4.3144   59.8156 H       1  ZINC000587344575    0.0700
@<TRIPOS>BOND
     1     1     2    1
     2     1    32    1
     3     1    33    1
     4     1    34    1
     5     2    25   ar
     6     2     3   ar
     7     3     4   ar
     8     3    35    1
     9     4     5    1
    10     4    23   ar
    11     5     6   am
    12     5    36    1
    13     6     7    2
    14     6     8    1
    15     8     9    1
    16     8    22    1
    17     8    10    1
    18    10    11    1
    19    10    37    1
    20    10    38    1
    21    11    12    1
    22    11    39    1
    23    11    40    1
    24    12    13    1
    25    12    22    1
    26    13    20   ar
    27    13    14   ar
    28    14    15   ar
    29    14    41    1
    30    15    16   ar
    31    15    42    1
    32    16    17    1
    33    16    19   ar
    34    17    18    3
    35    19    20   ar
    36    19    43    1
    37    20    21    1
    38    22    44    1
    39    22    45    1
    40    23    24   ar
    41    23    46    1
    42    24    25   ar
    43    24    47    1
    44    25    26    1
    45    26    27    2
    46    26    28   am
    47    28    29    1
    48    28    48    1
    49    29    30    1
    50    29    31    1
    51    29    49    1
    52    30    50    1
    53    30    51    1
    54    30    52    1
    55    31    53    1
    56    31    54    1
    57    31    55    1
@<TRIPOS>SUBSTRUCTURE
     1 ZINC000587344575        1 TEMP              0 ****  ****    0 ROOT


##########                                Name:    ZINC001016082614
##########                DOCK_Rotatable_Bonds:                   6
##########                         Heavy_Atoms:                  25
##########                    Molecular_Weight:             348.402
##########                DOCK_Rotatable_Bonds:                   6
##########                       Formal_Charge:         -0.00999998
##########                     HBond_Acceptors:                   8
##########                        HBond_Donors:                   1
##########                         Heavy_Atoms:                  25
##########                          Grid_Score:          -31.620792
##########                     Grid_vdw_energy:          -30.786900
##########                      Grid_es_energy:           -0.833894
##########           Internal_energy_repulsive:           33.803982

@<TRIPOS>MOLECULE
ZINC001016082614
 49 51 1 0 0
SMALL
USER_CHARGES


@<TRIPOS>ATOM
      1 C1          2.3686    1.3496   46.2202 C.3     1  ZINC001016082614   -0.1700
      2 C2          1.2330    0.3929   46.5891 C.3     1  ZINC001016082614    0.1000
      3 N3         -0.0036    1.1542   46.7820 N.am    1  ZINC001016082614   -0.6100
      4 C4         -0.8934    1.2608   45.7752 C.2     1  ZINC001016082614    0.6100
      5 O5         -1.9205    1.8931   45.9354 O.2     1  ZINC001016082614   -0.5100
      6 C6         -0.6233    0.6144   44.4860 C.2     1  ZINC001016082614   -0.1100
      7 C7         -1.5067   -0.1015   43.7339 C.2     1  ZINC001016082614    0.0600
      8 N8         -0.8594   -0.5138   42.6391 N.2     1  ZINC001016082614   -0.4900
      9 C9          0.3733   -0.0848   42.6874 C.2     1  ZINC001016082614    0.2000
     10 O10         0.5494    0.6184   43.8104 O.3     1  ZINC001016082614   -0.1900
     11 C11        -0.2733    1.7997   48.0693 C.3     1  ZINC001016082614    0.1600
     12 H12         0.6017    1.6756   48.7072 H       1  ZINC001016082614    0.0800
     13 C13        -0.4893    3.2905   47.8277 C.3     1  ZINC001016082614   -0.1300
     14 C14        -0.1305    4.0567   49.0770 C.3     1  ZINC001016082614   -0.1300
     15 C15        -1.3781    4.2442   49.9592 C.3     1  ZINC001016082614    0.1000
     16 N16        -2.2201    3.0324   49.9969 N.am    1  ZINC001016082614   -0.6000
     17 C17        -3.5581    3.1725   49.9169 C.2     1  ZINC001016082614    0.5000
     18 O18        -4.0471    4.2778   49.8164 O.2     1  ZINC001016082614   -0.5200
     19 C19        -4.4467    1.9558   49.9525 C.3     1  ZINC001016082614    0.1100
     20 H20        -4.0027    1.1481   49.3705 H       1  ZINC001016082614    0.1100
     21 C21        -5.8489    2.3017   49.4043 C.3     1  ZINC001016082614   -0.1200
     22 C22        -6.6157    2.6543   50.6998 C.3     1  ZINC001016082614   -0.1600
     23 C23        -5.8715    1.9093   51.7860 C.2     1  ZINC001016082614    0.5300
     24 O24        -6.3024    1.6898   52.8982 O.2     1  ZINC001016082614   -0.5300
     25 N25        -4.6615    1.5242   51.3387 N.am    1  ZINC001016082614   -0.7100
     26 C26        -1.6685    1.7012   50.1156 C.3     1  ZINC001016082614    0.1300
     27 C27        -1.4135    1.1198   48.7028 C.3     1  ZINC001016082614   -0.1600
     28 H28         3.2888    0.7832   46.0767 H       1  ZINC001016082614    0.0700
     29 H29         2.1170    1.8737   45.2982 H       1  ZINC001016082614    0.0500
     30 H30         2.5091    2.0735   47.0229 H       1  ZINC001016082614    0.0600
     31 H31         1.0926   -0.3310   45.7864 H       1  ZINC001016082614    0.0900
     32 H32         1.4846   -0.1312   47.5111 H       1  ZINC001016082614    0.0900
     33 H33        -2.5400   -0.2996   43.9779 H       1  ZINC001016082614    0.2000
     34 H34         1.1289   -0.2656   41.9371 H       1  ZINC001016082614    0.2600
     35 H35         0.1436    3.6210   47.0041 H       1  ZINC001016082614    0.0700
     36 H36        -1.5350    3.4708   47.5783 H       1  ZINC001016082614    0.0800
     37 H37         0.6266    3.5050   49.6344 H       1  ZINC001016082614    0.0700
     38 H38         0.2668    5.0333   48.8006 H       1  ZINC001016082614    0.0800
     39 H39        -1.0613    4.4867   50.9735 H       1  ZINC001016082614    0.0700
     40 H40        -1.9678    5.0727   49.5667 H       1  ZINC001016082614    0.0800
     41 H41        -5.8043    3.1583   48.7318 H       1  ZINC001016082614    0.1000
     42 H42        -6.2968    1.4408   48.9079 H       1  ZINC001016082614    0.1000
     43 H43        -6.5824    3.7284   50.8825 H       1  ZINC001016082614    0.1100
     44 H44        -7.6476    2.3086   50.6385 H       1  ZINC001016082614    0.1100
     45 H45        -4.0164    1.0265   51.8650 H       1  ZINC001016082614    0.4200
     46 H46        -0.7292    1.7454   50.6668 H       1  ZINC001016082614    0.0800
     47 H47        -2.3726    1.0630   50.6495 H       1  ZINC001016082614    0.0900
     48 H48        -2.3047    1.2563   48.0903 H       1  ZINC001016082614    0.0900
     49 H49        -1.1948    0.0552   48.7849 H       1  ZINC001016082614    0.0700
@<TRIPOS>BOND
     1     1     2    1
     2     1    28    1
     3     1    29    1
     4     1    30    1
     5     2     3    1
     6     2    31    1
     7     2    32    1
     8     3     4   am
     9     3    11    1
    10     4     5    2
    11     4     6    1
    12     6    10    1
    13     6     7    2
    14     7     8    1
    15     7    33    1
    16     8     9    2
    17     9    10    1
    18     9    34    1
    19    11    12    1
    20    11    27    1
    21    11    13    1
    22    13    14    1
    23    13    35    1
    24    13    36    1
    25    14    15    1
    26    14    37    1
    27    14    38    1
    28    15    16    1
    29    15    39    1
    30    15    40    1
    31    16    17   am
    32    16    26    1
    33    17    18    2
    34    17    19    1
    35    19    20    1
    36    19    25    1
    37    19    21    1
    38    21    22    1
    39    21    41    1
    40    21    42    1
    41    22    23    1
    42    22    43    1
    43    22    44    1
    44    23    24    2
    45    23    25   am
    46    25    45    1
    47    26    27    1
    48    26    46    1
    49    26    47    1
    50    27    48    1
    51    27    49    1
@<TRIPOS>SUBSTRUCTURE
     1 ZINC001016082614        1 TEMP              0 ****  ****    0 ROOT


##########                                Name:    ZINC000892389374
##########                DOCK_Rotatable_Bonds:                   6
##########                         Heavy_Atoms:                  25
##########                    Molecular_Weight:             371.383
##########                DOCK_Rotatable_Bonds:                   6
##########                       Formal_Charge:          -0.0199998
##########                     HBond_Acceptors:                   9
##########                        HBond_Donors:                   1
##########                         Heavy_Atoms:                  25
##########                          Grid_Score:          -31.606045
##########                     Grid_vdw_energy:          -30.676556
##########                      Grid_es_energy:           -0.929489
##########           Internal_energy_repulsive:           10.312857

@<TRIPOS>MOLECULE
ZINC000892389374
 41 43 1 0 0
SMALL
USER_CHARGES


@<TRIPOS>ATOM
      1 C1         -8.3032    0.7722   57.2780 C.3     1  ZINC000892389374   -0.1000
      2 C2         -9.1499   -0.4729   57.3418 C.ar    1  ZINC000892389374   -0.1800
      3 C3         -9.4662   -1.1524   56.1815 C.ar    1  ZINC000892389374   -0.0400
      4 C4        -10.2419   -2.2946   56.2358 C.ar    1  ZINC000892389374   -0.2100
      5 C5        -10.7066   -2.7631   57.4580 C.ar    1  ZINC000892389374    0.2200
      6 N6        -11.4922   -3.9201   57.5119 N.am    1  ZINC000892389374   -0.5700
      7 C7        -12.9315   -3.9912   57.2170 C.3     1  ZINC000892389374    0.0600
      8 C8        -13.2765   -5.4780   57.4288 C.3     1  ZINC000892389374    0.0400
      9 O9        -12.0088   -6.0824   57.8166 O.3     1  ZINC000892389374   -0.3200
     10 C10       -11.0546   -5.1448   57.8349 C.2     1  ZINC000892389374    0.6400
     11 O11        -9.8987   -5.3805   58.1262 O.2     1  ZINC000892389374   -0.5000
     12 C12       -10.3908   -2.0832   58.6256 C.ar    1  ZINC000892389374   -0.2300
     13 C13        -9.6069   -0.9396   58.5686 C.ar    1  ZINC000892389374    0.2400
     14 N14        -9.2867   -0.2522   59.7415 N.pl3   1  ZINC000892389374   -0.7400
     15 C15        -8.4210   -0.8778   60.7441 C.3     1  ZINC000892389374    0.2000
     16 C16        -8.8676   -0.4632   62.1224 C.2     1  ZINC000892389374   -0.2400
     17 C17       -10.1247   -0.2098   62.4985 C.2     1  ZINC000892389374    0.0600
     18 N18       -10.2576    0.1364   63.7630 N.2     1  ZINC000892389374   -0.4500
     19 C19        -9.1825    0.1891   64.4747 C.2     1  ZINC000892389374    0.0200
     20 C20        -9.1314    0.5633   65.9336 C.3     1  ZINC000892389374   -0.0900
     21 C21        -7.9900   -0.1944   66.6146 C.3     1  ZINC000892389374    0.4600
     22 F22        -7.9431    0.1520   67.9692 F       1  ZINC000892389374   -0.1800
     23 F23        -8.2059   -1.5712   66.4925 F       1  ZINC000892389374   -0.1800
     24 F24        -6.7769    0.1432   66.0048 F       1  ZINC000892389374   -0.1700
     25 S25        -7.8255   -0.2342   63.5246 S.3     1  ZINC000892389374    0.1900
     26 H26        -7.2509    0.5006   57.3612 H       1  ZINC000892389374    0.0700
     27 H27        -8.4736    1.2792   56.3283 H       1  ZINC000892389374    0.0700
     28 H28        -8.5727    1.4372   58.0985 H       1  ZINC000892389374    0.0600
     29 H29        -9.1068   -0.7899   55.2298 H       1  ZINC000892389374    0.1300
     30 H30       -10.4875   -2.8236   55.3268 H       1  ZINC000892389374    0.1200
     31 H31       -13.4953   -3.3652   57.9086 H       1  ZINC000892389374    0.1000
     32 H32       -13.1261   -3.6960   56.1860 H       1  ZINC000892389374    0.1000
     33 H33       -14.0126   -5.5899   58.2248 H       1  ZINC000892389374    0.1100
     34 H34       -13.6433   -5.9207   56.5028 H       1  ZINC000892389374    0.1100
     35 H35       -10.7513   -2.4454   59.5771 H       1  ZINC000892389374    0.1600
     36 H36        -9.6376    0.6395   59.8922 H       1  ZINC000892389374    0.4000
     37 H37        -8.4838   -1.9621   60.6527 H       1  ZINC000892389374    0.0900
     38 H38        -7.3910   -0.5587   60.5847 H       1  ZINC000892389374    0.0800
     39 H39       -10.9630   -0.2828   61.8215 H       1  ZINC000892389374    0.1800
     40 H40        -8.9625    1.6360   66.0277 H       1  ZINC000892389374    0.1300
     41 H41       -10.0763    0.3012   66.4093 H       1  ZINC000892389374    0.1400
@<TRIPOS>BOND
     1     1     2    1
     2     1    26    1
     3     1    27    1
     4     1    28    1
     5     2    13   ar
     6     2     3   ar
     7     3     4   ar
     8     3    29    1
     9     4     5   ar
    10     4    30    1
    11     5     6    1
    12     5    12   ar
    13     6    10   am
    14     6     7    1
    15     7     8    1
    16     7    31    1
    17     7    32    1
    18     8     9    1
    19     8    33    1
    20     8    34    1
    21     9    10    1
    22    10    11    2
    23    12    13   ar
    24    12    35    1
    25    13    14    1
    26    14    15    1
    27    14    36    1
    28    15    16    1
    29    15    37    1
    30    15    38    1
    31    16    25    1
    32    16    17    2
    33    17    18    1
    34    17    39    1
    35    18    19    2
    36    19    20    1
    37    19    25    1
    38    20    21    1
    39    20    40    1
    40    20    41    1
    41    21    22    1
    42    21    23    1
    43    21    24    1
@<TRIPOS>SUBSTRUCTURE
     1 ZINC000892389374        1 TEMP              0 ****  ****    0 ROOT


##########                                Name:    ZINC001078748831
##########                DOCK_Rotatable_Bonds:                   6
##########                         Heavy_Atoms:                  23
##########                    Molecular_Weight:             333.417
##########                DOCK_Rotatable_Bonds:                   6
##########                       Formal_Charge:           0.0299999
##########                     HBond_Acceptors:                   9
##########                        HBond_Donors:                   2
##########                         Heavy_Atoms:                  23
##########                          Grid_Score:          -31.554281
##########                     Grid_vdw_energy:          -29.711111
##########                      Grid_es_energy:           -1.843170
##########           Internal_energy_repulsive:            4.825269

@<TRIPOS>MOLECULE
ZINC001078748831
 42 45 1 0 0
SMALL
USER_CHARGES


@<TRIPOS>ATOM
      1 C1        -10.6316   -0.2234   53.5992 C.3     1  ZINC001078748831    0.1000
      2 N2         -9.3091    0.0044   53.0116 N.pl3   1  ZINC001078748831   -0.1400
      3 N3         -8.2904   -0.7569   53.1969 N.2     1  ZINC001078748831   -0.2900
      4 C4         -7.2682   -0.2737   52.5326 C.2     1  ZINC001078748831    0.0400
      5 C5         -7.7416    0.8900   51.8943 C.2     1  ZINC001078748831   -0.0500
      6 C6         -6.9774    1.8045   51.0200 C.2     1  ZINC001078748831    0.6200
      7 O7         -7.5083    2.2970   50.0437 O.2     1  ZINC001078748831   -0.5200
      8 N8         -5.6919    2.0920   51.3053 N.am    1  ZINC001078748831   -0.7000
      9 C9         -4.9339    2.9971   50.4377 C.3     1  ZINC001078748831    0.1500
     10 H10        -5.4998    3.8840   50.1527 H       1  ZINC001078748831    0.1100
     11 C11        -4.2542    2.2901   49.2509 C.3     1  ZINC001078748831   -0.1800
     12 C12        -3.0329    2.0867   50.1659 C.3     1  ZINC001078748831    0.0800
     13 H13        -3.0625    1.1576   50.7350 H       1  ZINC001078748831    0.1000
     14 N14        -1.7470    2.3012   49.4891 N.3     1  ZINC001078748831   -0.6700
     15 C15        -1.2121    1.0385   48.9624 C.3     1  ZINC001078748831    0.1400
     16 C16        -1.3456    1.0235   47.4613 C.2     1  ZINC001078748831    0.0600
     17 N17        -1.4051    2.0988   46.7258 N.2     1  ZINC001078748831   -0.5700
     18 S18        -1.5392    1.6673   45.2327 S.3     1  ZINC001078748831    0.6800
     19 N19        -1.5297    0.1200   45.4312 N.2     1  ZINC001078748831   -0.5700
     20 C20        -1.4132   -0.1307   46.7058 C.2     1  ZINC001078748831    0.0500
     21 C21        -3.5273    3.3053   50.9519 C.3     1  ZINC001078748831   -0.1000
     22 C22        -2.8958    4.6837   50.7534 C.3     1  ZINC001078748831   -0.1000
     23 C23        -3.2722    4.9712   52.2182 C.3     1  ZINC001078748831   -0.1400
     24 C24        -3.2446    3.4492   52.4477 C.3     1  ZINC001078748831   -0.1200
     25 N25        -9.0167    0.9893   52.2383 N.2     1  ZINC001078748831   -0.2500
     26 H26       -11.2259   -0.8428   52.9275 H       1  ZINC001078748831    0.1000
     27 H27       -10.5208   -0.7302   54.5580 H       1  ZINC001078748831    0.1100
     28 H28       -11.1321    0.7332   53.7496 H       1  ZINC001078748831    0.1100
     29 H29        -6.2698   -0.6827   52.4851 H       1  ZINC001078748831    0.2100
     30 H30        -5.2687    1.6999   52.0850 H       1  ZINC001078748831    0.4100
     31 H31        -4.7415    1.3593   48.9607 H       1  ZINC001078748831    0.0700
     32 H32        -4.0599    2.9487   48.4043 H       1  ZINC001078748831    0.1000
     33 H33        -1.8341    2.9902   48.7571 H       1  ZINC001078748831    0.3500
     34 H34        -0.1606    0.9476   49.2346 H       1  ZINC001078748831    0.1000
     35 H35        -1.7703    0.2030   49.3851 H       1  ZINC001078748831    0.0600
     36 H36        -1.3797   -1.1264   47.1230 H       1  ZINC001078748831    0.2000
     37 H37        -1.8208    4.6509   50.5762 H       1  ZINC001078748831    0.1000
     38 H38        -3.4261    5.3084   50.0347 H       1  ZINC001078748831    0.0700
     39 H39        -2.5007    5.5093   52.7691 H       1  ZINC001078748831    0.0700
     40 H40        -4.2621    5.4121   52.3356 H       1  ZINC001078748831    0.0800
     41 H41        -4.0536    3.0878   53.0825 H       1  ZINC001078748831    0.0700
     42 H42        -2.2677    3.0695   52.7468 H       1  ZINC001078748831    0.0900
@<TRIPOS>BOND
     1     1     2    1
     2     1    26    1
     3     1    27    1
     4     1    28    1
     5     2    25    1
     6     2     3    1
     7     3     4    2
     8     4     5    1
     9     4    29    1
    10     5     6    1
    11     5    25    2
    12     6     7    2
    13     6     8   am
    14     8     9    1
    15     8    30    1
    16     9    10    1
    17     9    21    1
    18     9    11    1
    19    11    12    1
    20    11    31    1
    21    11    32    1
    22    12    13    1
    23    12    14    1
    24    12    21    1
    25    14    15    1
    26    14    33    1
    27    15    16    1
    28    15    34    1
    29    15    35    1
    30    16    20    1
    31    16    17    2
    32    17    18    1
    33    18    19    1
    34    19    20    2
    35    20    36    1
    36    21    24    1
    37    21    22    1
    38    22    23    1
    39    22    37    1
    40    22    38    1
    41    23    24    1
    42    23    39    1
    43    23    40    1
    44    24    41    1
    45    24    42    1
@<TRIPOS>SUBSTRUCTURE
     1 ZINC001078748831        1 TEMP              0 ****  ****    0 ROOT


##########                                Name:    ZINC000156038173
##########                DOCK_Rotatable_Bonds:                  10
##########                         Heavy_Atoms:                  27
##########                    Molecular_Weight:             396.357
##########                DOCK_Rotatable_Bonds:                  10
##########                       Formal_Charge:         -0.00999981
##########                     HBond_Acceptors:                  10
##########                        HBond_Donors:                   1
##########                         Heavy_Atoms:                  27
##########                          Grid_Score:          -31.549751
##########                     Grid_vdw_energy:          -31.156155
##########                      Grid_es_energy:           -0.393596
##########           Internal_energy_repulsive:           41.107155

@<TRIPOS>MOLECULE
ZINC000156038173
 48 48 1 0 0
SMALL
USER_CHARGES


@<TRIPOS>ATOM
      1 C1         -1.0697    2.3894   51.1675 C.3     1  ZINC000156038173    0.0700
      2 N2         -2.3571    2.2299   50.4869 N.am    1  ZINC000156038173   -0.6300
      3 C3         -2.4299    1.4997   49.2189 C.3     1  ZINC000156038173    0.1500
      4 C4         -2.5308    2.4958   48.0619 C.3     1  ZINC000156038173   -0.1400
      5 C5         -1.9753    1.8686   46.8093 C.2     1  ZINC000156038173    0.4700
      6 O6         -2.6095    1.9075   45.7817 O.2     1  ZINC000156038173   -0.5000
      7 O7         -0.7758    1.2667   46.8352 O.3     1  ZINC000156038173   -0.3500
      8 C8         -0.1770    0.9348   45.5547 C.3     1  ZINC000156038173    0.1200
      9 C9         -1.0363   -0.1145   44.8466 C.3     1  ZINC000156038173   -0.1800
     10 C10        -0.0931    2.1937   44.6893 C.3     1  ZINC000156038173   -0.1400
     11 C11         1.2293    0.3754   45.7790 C.3     1  ZINC000156038173   -0.1800
     12 C12        -3.4746    2.7549   51.0273 C.2     1  ZINC000156038173    0.7100
     13 O13        -3.4141    3.3622   52.0789 O.2     1  ZINC000156038173   -0.5700
     14 N14        -4.6592    2.6068   50.4019 N.am    1  ZINC000156038173   -0.7400
     15 C15        -5.8737    3.1788   50.9884 C.3     1  ZINC000156038173    0.1700
     16 H16        -5.6098    4.0389   51.6037 H       1  ZINC000156038173    0.1500
     17 C17        -6.5564    2.1412   51.8418 C.ar    1  ZINC000156038173   -0.1300
     18 C18        -6.9429    2.4529   53.1317 C.ar    1  ZINC000156038173   -0.0700
     19 C19        -7.5693    1.5021   53.9161 C.ar    1  ZINC000156038173   -0.1000
     20 C20        -7.8103    0.2379   53.4120 C.ar    1  ZINC000156038173   -0.1100
     21 C21        -7.4244   -0.0773   52.1207 C.ar    1  ZINC000156038173    0.0700
     22 F22        -7.6596   -1.3128   51.6272 F       1  ZINC000156038173   -0.1200
     23 C23        -6.8014    0.8779   51.3321 C.ar    1  ZINC000156038173    0.1000
     24 F24        -6.4239    0.5725   50.0714 F       1  ZINC000156038173   -0.1200
     25 C25        -6.8197    3.6225   49.8707 C.3     1  ZINC000156038173    0.4500
     26 F26        -8.1352    3.2939   50.2152 F       1  ZINC000156038173   -0.1700
     27 F27        -6.7158    5.0064   49.6937 F       1  ZINC000156038173   -0.1600
     28 F28        -6.4731    2.9730   48.6810 F       1  ZINC000156038173   -0.1700
     29 H29        -0.5874    3.3041   50.8230 H       1  ZINC000156038173    0.0600
     30 H30        -1.2323    2.4475   52.2437 H       1  ZINC000156038173    0.0700
     31 H31        -0.4313    1.5351   50.9421 H       1  ZINC000156038173    0.0800
     32 H32        -1.5332    0.8918   49.0978 H       1  ZINC000156038173    0.1000
     33 H33        -3.3086    0.8548   49.2209 H       1  ZINC000156038173    0.0900
     34 H34        -3.5755    2.7625   47.9022 H       1  ZINC000156038173    0.1100
     35 H35        -1.9598    3.3923   48.3034 H       1  ZINC000156038173    0.1100
     36 H36        -2.0382    0.2840   44.6868 H       1  ZINC000156038173    0.0600
     37 H37        -0.5868   -0.3636   43.8853 H       1  ZINC000156038173    0.0700
     38 H38        -1.0961   -1.0114   45.4631 H       1  ZINC000156038173    0.0800
     39 H39         0.5191    2.9413   45.1938 H       1  ZINC000156038173    0.0700
     40 H40         0.3563    1.9446   43.7281 H       1  ZINC000156038173    0.0800
     41 H41        -1.0950    2.5923   44.5296 H       1  ZINC000156038173    0.0700
     42 H42         1.1695   -0.5214   46.3955 H       1  ZINC000156038173    0.0800
     43 H43         1.6788    0.1263   44.8177 H       1  ZINC000156038173    0.0700
     44 H44         1.8415    1.1230   46.2835 H       1  ZINC000156038173    0.0600
     45 H45        -4.7078    2.1212   49.5636 H       1  ZINC000156038173    0.4100
     46 H46        -6.7551    3.4400   53.5275 H       1  ZINC000156038173    0.1400
     47 H47        -7.8702    1.7473   54.9238 H       1  ZINC000156038173    0.1500
     48 H48        -8.2993   -0.5040   54.0258 H       1  ZINC000156038173    0.1500
@<TRIPOS>BOND
     1     1     2    1
     2     1    29    1
     3     1    30    1
     4     1    31    1
     5     2     3    1
     6     2    12   am
     7     3     4    1
     8     3    32    1
     9     3    33    1
    10     4     5    1
    11     4    34    1
    12     4    35    1
    13     5     6    2
    14     5     7    1
    15     7     8    1
    16     8     9    1
    17     8    10    1
    18     8    11    1
    19     9    36    1
    20     9    37    1
    21     9    38    1
    22    10    39    1
    23    10    40    1
    24    10    41    1
    25    11    42    1
    26    11    43    1
    27    11    44    1
    28    12    13    2
    29    12    14   am
    30    14    15    1
    31    14    45    1
    32    15    16    1
    33    15    17    1
    34    15    25    1
    35    17    23   ar
    36    17    18   ar
    37    18    19   ar
    38    18    46    1
    39    19    20   ar
    40    19    47    1
    41    20    21   ar
    42    20    48    1
    43    21    22    1
    44    21    23   ar
    45    23    24    1
    46    25    26    1
    47    25    27    1
    48    25    28    1
@<TRIPOS>SUBSTRUCTURE
     1 ZINC000156038173        1 TEMP              0 ****  ****    0 ROOT


##########                                Name:    ZINC000052999724
##########                DOCK_Rotatable_Bonds:                   6
##########                         Heavy_Atoms:                  25
##########                    Molecular_Weight:             398.571
##########                DOCK_Rotatable_Bonds:                   6
##########                       Formal_Charge:           0.0399994
##########                     HBond_Acceptors:                   8
##########                        HBond_Donors:                   1
##########                         Heavy_Atoms:                  25
##########                          Grid_Score:          -31.546982
##########                     Grid_vdw_energy:          -30.254065
##########                      Grid_es_energy:           -1.292918
##########           Internal_energy_repulsive:           13.052005

@<TRIPOS>MOLECULE
ZINC000052999724
 47 49 1 0 0
SMALL
USER_CHARGES


@<TRIPOS>ATOM
      1 C1          1.3923    1.1446   52.0603 C.3     1  ZINC000052999724   -0.1400
      2 C2          0.9402    2.1874   51.0361 C.3     1  ZINC000052999724   -0.0400
      3 C3          1.6240    3.5235   51.3330 C.3     1  ZINC000052999724   -0.1400
      4 C4          1.3162    1.7275   49.6512 C.2     1  ZINC000052999724   -0.0400
      5 C5          0.6357    2.0984   48.5257 C.2     1  ZINC000052999724   -0.2600
      6 C6         -0.5354    2.9792   48.4918 C.2     1  ZINC000052999724    0.6000
      7 O7         -0.3896    4.1808   48.3643 O.2     1  ZINC000052999724   -0.5200
      8 N8         -1.7737    2.4585   48.6017 N.am    1  ZINC000052999724   -0.6000
      9 C9         -1.9655    1.0108   48.7622 C.3     1  ZINC000052999724    0.1100
     10 C10        -2.8303    0.7623   50.0019 C.3     1  ZINC000052999724   -0.1400
     11 C11        -4.1313    1.5590   49.8793 C.3     1  ZINC000052999724    0.1500
     12 N12        -4.9754    1.2979   51.0479 N.am    1  ZINC000052999724   -1.1100
     13 S13        -6.3955    0.4641   50.8739 S.o2    1  ZINC000052999724    2.7200
     14 O14        -7.2536    1.2903   50.0991 O.2     1  ZINC000052999724   -0.9500
     15 O15        -6.0403   -0.8588   50.4953 O.2     1  ZINC000052999724   -0.9400
     16 C16        -7.1292    0.3444   52.4714 C.2     1  ZINC000052999724   -0.8000
     17 C17        -8.2944   -0.2467   52.7401 C.2     1  ZINC000052999724    0.0100
     18 C18        -8.6698   -0.2175   54.0721 C.2     1  ZINC000052999724   -0.1600
     19 C19        -7.8094    0.3972   54.8851 C.2     1  ZINC000052999724   -0.1700
     20 S20        -6.4335    0.9792   53.9568 S.3     1  ZINC000052999724    0.2100
     21 C21        -3.8112    3.0537   49.8052 C.3     1  ZINC000052999724   -0.1500
     22 C22        -2.9572    3.3286   48.5693 C.3     1  ZINC000052999724    0.1100
     23 S23         1.3904    1.3502   47.1249 S.3     1  ZINC000052999724    0.2100
     24 C24         2.5624    0.5895   48.1041 C.2     1  ZINC000052999724   -0.2400
     25 C25         2.3814    0.8975   49.3937 C.2     1  ZINC000052999724   -0.1300
     26 H26         0.9052    0.1927   51.8489 H       1  ZINC000052999724    0.0600
     27 H27         2.4735    1.0208   51.9996 H       1  ZINC000052999724    0.0600
     28 H28         1.1203    1.4774   53.0620 H       1  ZINC000052999724    0.0600
     29 H29        -0.1410    2.3114   51.0968 H       1  ZINC000052999724    0.0800
     30 H30         2.7053    3.3997   51.2723 H       1  ZINC000052999724    0.0600
     31 H31         1.3019    4.2666   50.6033 H       1  ZINC000052999724    0.0600
     32 H32         1.3521    3.8563   52.3346 H       1  ZINC000052999724    0.0600
     33 H33        -2.4655    0.6085   47.8812 H       1  ZINC000052999724    0.0800
     34 H34        -0.9975    0.5257   48.8888 H       1  ZINC000052999724    0.0900
     35 H35        -3.0603   -0.3004   50.0782 H       1  ZINC000052999724    0.0900
     36 H36        -2.2900    1.0830   50.8926 H       1  ZINC000052999724    0.0800
     37 H37        -4.6590    1.2556   48.9751 H       1  ZINC000052999724    0.0900
     38 H38        -4.7024    1.6134   51.9236 H       1  ZINC000052999724    0.4200
     39 H39        -8.8993   -0.7125   51.9761 H       1  ZINC000052999724    0.1600
     40 H40        -9.5897   -0.6588   54.4262 H       1  ZINC000052999724    0.1500
     41 H41        -7.9364    0.5162   55.9511 H       1  ZINC000052999724    0.1800
     42 H42        -4.7393    3.6217   49.7414 H       1  ZINC000052999724    0.1000
     43 H43        -3.2617    3.3527   50.6978 H       1  ZINC000052999724    0.0800
     44 H44        -2.6447    4.3729   48.5661 H       1  ZINC000052999724    0.1000
     45 H45        -3.5358    3.1154   47.6706 H       1  ZINC000052999724    0.0800
     46 H46         3.3478   -0.0518   47.7323 H       1  ZINC000052999724    0.1700
     47 H47         3.0206    0.5153   50.1759 H       1  ZINC000052999724    0.1400
@<TRIPOS>BOND
     1     1     2    1
     2     1    26    1
     3     1    27    1
     4     1    28    1
     5     2     3    1
     6     2     4    1
     7     2    29    1
     8     3    30    1
     9     3    31    1
    10     3    32    1
    11     4    25    1
    12     4     5    2
    13     5     6    1
    14     5    23    1
    15     6     7    2
    16     6     8   am
    17     8    22    1
    18     8     9    1
    19     9    10    1
    20     9    33    1
    21     9    34    1
    22    10    11    1
    23    10    35    1
    24    10    36    1
    25    11    12    1
    26    11    21    1
    27    11    37    1
    28    12    13   am
    29    12    38    1
    30    13    14    2
    31    13    15    2
    32    13    16    1
    33    16    20    1
    34    16    17    2
    35    17    18    1
    36    17    39    1
    37    18    19    2
    38    18    40    1
    39    19    20    1
    40    19    41    1
    41    21    22    1
    42    21    42    1
    43    21    43    1
    44    22    44    1
    45    22    45    1
    46    23    24    1
    47    24    25    2
    48    24    46    1
    49    25    47    1
@<TRIPOS>SUBSTRUCTURE
     1 ZINC000052999724        1 TEMP              0 ****  ****    0 ROOT


##########                                Name:    ZINC000373715094
##########                DOCK_Rotatable_Bonds:                   6
##########                         Heavy_Atoms:                  27
##########                    Molecular_Weight:             362.431
##########                DOCK_Rotatable_Bonds:                   6
##########                       Formal_Charge:           0.0299999
##########                     HBond_Acceptors:                   6
##########                        HBond_Donors:                   2
##########                         Heavy_Atoms:                  27
##########                          Grid_Score:          -31.542379
##########                     Grid_vdw_energy:          -30.068880
##########                      Grid_es_energy:           -1.473500
##########           Internal_energy_repulsive:            9.627782

@<TRIPOS>MOLECULE
ZINC000373715094
 49 52 1 0 0
SMALL
USER_CHARGES


@<TRIPOS>ATOM
      1 C1          1.6903    4.4281   46.2360 C.3     1  ZINC000373715094    0.0900
      2 N2          1.2939    3.3058   47.0902 N.am    1  ZINC000373715094   -0.6100
      3 C3          2.1342    2.6292   47.8920 C.2     1  ZINC000373715094    0.5200
      4 O4          3.3203    2.8557   48.0046 O.2     1  ZINC000373715094   -0.5200
      5 C5          1.3850    1.5443   48.6339 C.3     1  ZINC000373715094   -0.1600
      6 C6         -0.1028    1.9349   48.4758 C.3     1  ZINC000373715094   -0.1000
      7 H7         -0.7272    1.0502   48.3516 H       1  ZINC000373715094    0.1100
      8 C8         -0.5777    2.7746   49.6633 C.3     1  ZINC000373715094    0.1300
      9 N9         -2.0322    2.9364   49.5963 N.am    1  ZINC000373715094   -0.7300
     10 C10        -2.8387    2.0320   50.1865 C.2     1  ZINC000373715094    0.5200
     11 O11        -2.3602    1.0850   50.7741 O.2     1  ZINC000373715094   -0.5200
     12 C12        -4.3349    2.1975   50.1160 C.3     1  ZINC000373715094   -0.0600
     13 C13        -4.9272    2.0004   51.4877 C.2     1  ZINC000373715094    0.1200
     14 N14        -4.6453    2.6953   52.5525 N.2     1  ZINC000373715094   -0.2300
     15 N15        -5.3876    2.2278   53.6419 N.pl3   1  ZINC000373715094   -0.5100
     16 C16        -6.1752    1.1838   53.2324 C.ar    1  ZINC000373715094    0.1300
     17 C17        -7.0942    0.3585   53.8753 C.ar    1  ZINC000373715094   -0.1400
     18 C18        -7.7364   -0.6213   53.1723 C.ar    1  ZINC000373715094   -0.0700
     19 C19        -7.4846   -0.8078   51.8188 C.ar    1  ZINC000373715094   -0.1600
     20 C20        -6.5890   -0.0140   51.1624 C.ar    1  ZINC000373715094   -0.0400
     21 C21        -5.9236    1.0007   51.8586 C.ar    1  ZINC000373715094   -0.1600
     22 C22        -0.0730    2.7798   47.1850 C.3     1  ZINC000373715094    0.1800
     23 H23        -0.7922    3.5961   47.2518 H       1  ZINC000373715094    0.1000
     24 C24        -0.3761    1.9151   45.9885 C.ar    1  ZINC000373715094   -0.1000
     25 C25        -1.6876    1.6632   45.6322 C.ar    1  ZINC000373715094   -0.1000
     26 C26        -1.9655    0.8700   44.5347 C.ar    1  ZINC000373715094   -0.1200
     27 C27        -0.9318    0.3291   43.7933 C.ar    1  ZINC000373715094   -0.1100
     28 C28         0.3798    0.5818   44.1490 C.ar    1  ZINC000373715094   -0.1200
     29 C29         0.6578    1.3784   45.2440 C.ar    1  ZINC000373715094   -0.1100
     30 H30         1.5903    5.3605   46.7915 H       1  ZINC000373715094    0.0600
     31 H31         2.7273    4.2997   45.9254 H       1  ZINC000373715094    0.0800
     32 H32         1.0485    4.4590   45.3555 H       1  ZINC000373715094    0.0700
     33 H33         1.5743    0.5715   48.1803 H       1  ZINC000373715094    0.1100
     34 H34         1.6676    1.5370   49.6865 H       1  ZINC000373715094    0.1100
     35 H35        -0.3104    2.2725   50.5932 H       1  ZINC000373715094    0.0700
     36 H36        -0.1011    3.7542   49.6293 H       1  ZINC000373715094    0.0800
     37 H37        -2.4148    3.6944   49.1274 H       1  ZINC000373715094    0.4000
     38 H38        -4.5732    3.1990   49.7578 H       1  ZINC000373715094    0.1200
     39 H39        -4.7504    1.4583   49.4312 H       1  ZINC000373715094    0.1200
     40 H40        -5.3505    2.5851   54.5430 H       1  ZINC000373715094    0.4400
     41 H41        -7.2986    0.4924   54.9273 H       1  ZINC000373715094    0.1300
     42 H42        -8.4484   -1.2591   53.6751 H       1  ZINC000373715094    0.1300
     43 H43        -8.0021   -1.5885   51.2811 H       1  ZINC000373715094    0.1300
     44 H44        -6.3987   -0.1653   50.1100 H       1  ZINC000373715094    0.1300
     45 H45        -2.4952    2.0857   46.2115 H       1  ZINC000373715094    0.1200
     46 H46        -2.9904    0.6726   44.2568 H       1  ZINC000373715094    0.1200
     47 H47        -1.1490   -0.2912   42.9362 H       1  ZINC000373715094    0.1200
     48 H48         1.1874    0.1589   43.5700 H       1  ZINC000373715094    0.1300
     49 H49         1.6825    1.5759   45.5219 H       1  ZINC000373715094    0.1300
@<TRIPOS>BOND
     1     1     2    1
     2     1    30    1
     3     1    31    1
     4     1    32    1
     5     2    22    1
     6     2     3   am
     7     3     4    2
     8     3     5    1
     9     5     6    1
    10     5    33    1
    11     5    34    1
    12     6     7    1
    13     6     8    1
    14     6    22    1
    15     8     9    1
    16     8    35    1
    17     8    36    1
    18     9    10   am
    19     9    37    1
    20    10    11    2
    21    10    12    1
    22    12    13    1
    23    12    38    1
    24    12    39    1
    25    13    21    1
    26    13    14    2
    27    14    15    1
    28    15    16    1
    29    15    40    1
    30    16    21   ar
    31    16    17   ar
    32    17    18   ar
    33    17    41    1
    34    18    19   ar
    35    18    42    1
    36    19    20   ar
    37    19    43    1
    38    20    21   ar
    39    20    44    1
    40    22    23    1
    41    22    24    1
    42    24    29   ar
    43    24    25   ar
    44    25    26   ar
    45    25    45    1
    46    26    27   ar
    47    26    46    1
    48    27    28   ar
    49    27    47    1
    50    28    29   ar
    51    28    48    1
    52    29    49    1
@<TRIPOS>SUBSTRUCTURE
     1 ZINC000373715094        1 TEMP              0 ****  ****    0 ROOT


##########                                Name:    ZINC000541000201
##########                DOCK_Rotatable_Bonds:                  10
##########                         Heavy_Atoms:                  30
##########                    Molecular_Weight:             420.413
##########                DOCK_Rotatable_Bonds:                  10
##########                       Formal_Charge:               -0.03
##########                     HBond_Acceptors:                   9
##########                        HBond_Donors:                   1
##########                         Heavy_Atoms:                  30
##########                          Grid_Score:          -31.532398
##########                     Grid_vdw_energy:          -28.895699
##########                      Grid_es_energy:           -2.636700
##########           Internal_energy_repulsive:           14.059681

@<TRIPOS>MOLECULE
ZINC000541000201
 52 54 1 0 0
SMALL
USER_CHARGES


@<TRIPOS>ATOM
      1 C1         -7.9676    3.9203   49.7347 C.3     1  ZINC000541000201    0.0400
      2 O2         -7.2046    3.1160   50.6725 O.3     1  ZINC000541000201   -0.3500
      3 C3         -6.1982    2.3840   50.1694 C.2     1  ZINC000541000201    0.4500
      4 O4         -5.9413    2.4398   48.9901 O.2     1  ZINC000541000201   -0.4900
      5 C5         -5.3886    1.4927   51.0756 C.3     1  ZINC000541000201    0.2100
      6 H6         -5.6218    0.4495   50.8621 H       1  ZINC000541000201    0.1400
      7 N7         -5.7156    1.7901   52.4724 N.am    1  ZINC000541000201   -0.7100
      8 C8         -6.6155    1.0323   53.1298 C.2     1  ZINC000541000201    0.5800
      9 O9         -7.1548    0.1008   52.5643 O.2     1  ZINC000541000201   -0.5300
     10 C10        -6.9463    1.3331   54.5367 C.ar    1  ZINC000541000201   -0.2300
     11 C11        -6.3824    2.4454   55.1783 C.ar    1  ZINC000541000201    0.0200
     12 C12        -6.7223    2.6849   56.4941 C.ar    1  ZINC000541000201   -0.2000
     13 C13        -7.6057    1.8230   57.1363 C.ar    1  ZINC000541000201    0.3500
     14 O14        -7.9430    2.0534   58.4282 O.3     1  ZINC000541000201   -0.2900
     15 C15        -8.8603    1.1391   59.0321 C.3     1  ZINC000541000201    0.0800
     16 C16        -8.2069   -0.2556   59.1959 C.3     1  ZINC000541000201   -0.1400
     17 C17        -9.0314   -0.8863   60.3456 C.3     1  ZINC000541000201   -0.1200
     18 C18        -9.2954    0.2881   61.3103 C.3     1  ZINC000541000201   -0.1200
     19 C19        -9.1867    1.5760   60.4751 C.3     1  ZINC000541000201   -0.1200
     20 N20        -8.1219    0.7809   56.5028 N.ar    1  ZINC000541000201   -0.5400
     21 C21        -7.8294    0.5181   55.2464 C.ar    1  ZINC000541000201    0.1800
     22 C22        -3.9204    1.7376   50.8403 C.ar    1  ZINC000541000201   -0.1300
     23 C23        -3.1340    0.7417   50.2912 C.ar    1  ZINC000541000201   -0.0700
     24 C24        -1.7878    0.9637   50.0746 C.ar    1  ZINC000541000201   -0.1300
     25 C25        -1.2253    2.1873   50.4080 C.ar    1  ZINC000541000201    0.1200
     26 O26         0.0987    2.4082   50.1954 O.3     1  ZINC000541000201   -0.3200
     27 C27         1.0118    1.4583   50.7485 C.3     1  ZINC000541000201    0.4100
     28 F28         2.3237    1.9013   50.5484 F       1  ZINC000541000201   -0.2000
     29 F29         0.7697    1.3223   52.1197 F       1  ZINC000541000201   -0.2000
     30 C30        -2.0166    3.1850   50.9583 C.ar    1  ZINC000541000201   -0.1900
     31 C31        -3.3633    2.9596   51.1686 C.ar    1  ZINC000541000201   -0.0500
     32 H32        -8.7482    4.4604   50.2705 H       1  ZINC000541000201    0.1000
     33 H33        -7.3046    4.6325   49.2435 H       1  ZINC000541000201    0.0600
     34 H34        -8.4228    3.2717   48.9862 H       1  ZINC000541000201    0.0600
     35 H35        -5.2845    2.5326   52.9239 H       1  ZINC000541000201    0.4100
     36 H36        -5.6988    3.0980   54.6557 H       1  ZINC000541000201    0.1600
     37 H37        -6.3068    3.5321   57.0197 H       1  ZINC000541000201    0.1500
     38 H38        -9.7724    1.0681   58.4395 H       1  ZINC000541000201    0.1000
     39 H39        -8.3092   -0.8399   58.2816 H       1  ZINC000541000201    0.0700
     40 H40        -7.1588   -0.1602   59.4795 H       1  ZINC000541000201    0.0800
     41 H41        -9.9714   -1.2868   59.9657 H       1  ZINC000541000201    0.0700
     42 H42        -8.4565   -1.6671   60.8435 H       1  ZINC000541000201    0.0700
     43 H43       -10.2948    0.2032   61.7372 H       1  ZINC000541000201    0.0700
     44 H44        -8.5490    0.2940   62.1045 H       1  ZINC000541000201    0.0700
     45 H45        -8.3875    2.2068   60.8641 H       1  ZINC000541000201    0.0800
     46 H46       -10.1332    2.1160   60.4968 H       1  ZINC000541000201    0.0700
     47 H47        -8.2705   -0.3410   54.7630 H       1  ZINC000541000201    0.1600
     48 H48        -3.5723   -0.2106   50.0318 H       1  ZINC000541000201    0.1300
     49 H49        -1.1738    0.1853   49.6463 H       1  ZINC000541000201    0.1400
     50 H50         0.8751    0.4945   50.2580 H       1  ZINC000541000201    0.1900
     51 H51        -1.5810    4.1382   51.2190 H       1  ZINC000541000201    0.1400
     52 H52        -3.9798    3.7362   51.5966 H       1  ZINC000541000201    0.1400
@<TRIPOS>BOND
     1     1     2    1
     2     1    32    1
     3     1    33    1
     4     1    34    1
     5     2     3    1
     6     3     4    2
     7     3     5    1
     8     5     6    1
     9     5     7    1
    10     5    22    1
    11     7     8   am
    12     7    35    1
    13     8     9    2
    14     8    10    1
    15    10    21   ar
    16    10    11   ar
    17    11    12   ar
    18    11    36    1
    19    12    13   ar
    20    12    37    1
    21    13    14    1
    22    13    20   ar
    23    14    15    1
    24    15    19    1
    25    15    16    1
    26    15    38    1
    27    16    17    1
    28    16    39    1
    29    16    40    1
    30    17    18    1
    31    17    41    1
    32    17    42    1
    33    18    19    1
    34    18    43    1
    35    18    44    1
    36    19    45    1
    37    19    46    1
    38    20    21   ar
    39    21    47    1
    40    22    31   ar
    41    22    23   ar
    42    23    24   ar
    43    23    48    1
    44    24    25   ar
    45    24    49    1
    46    25    26    1
    47    25    30   ar
    48    26    27    1
    49    27    28    1
    50    27    29    1
    51    27    50    1
    52    30    31   ar
    53    30    51    1
    54    31    52    1
@<TRIPOS>SUBSTRUCTURE
     1 ZINC000541000201        1 TEMP              0 ****  ****    0 ROOT


##########                                Name:    ZINC000740843182
##########                DOCK_Rotatable_Bonds:                  10
##########                         Heavy_Atoms:                  24
##########                    Molecular_Weight:              419.34
##########                DOCK_Rotatable_Bonds:                  10
##########                       Formal_Charge:          0.00999957
##########                     HBond_Acceptors:                   7
##########                        HBond_Donors:                   3
##########                         Heavy_Atoms:                  24
##########                          Grid_Score:          -31.483927
##########                     Grid_vdw_energy:          -30.681757
##########                      Grid_es_energy:           -0.802170
##########           Internal_energy_repulsive:           11.792849

@<TRIPOS>MOLECULE
ZINC000740843182
 47 48 1 0 0
SMALL
USER_CHARGES


@<TRIPOS>ATOM
      1 C1         -7.1373   -0.6120   52.2424 C.3     1  ZINC000740843182   -0.1500
      2 C2         -6.3624    0.6411   51.8297 C.3     1  ZINC000740843182   -0.1000
      3 H3         -5.3515    0.5928   52.2345 H       1  ZINC000740843182    0.0900
      4 C4         -6.2974    0.7207   50.3032 C.3     1  ZINC000740843182    0.1200
      5 N5         -4.9551    1.1399   49.8927 N.am    1  ZINC000740843182   -0.7200
      6 C6         -4.7943    2.2534   49.1507 C.2     1  ZINC000740843182    0.5500
      7 O7         -5.7632    2.9092   48.8207 O.2     1  ZINC000740843182   -0.5000
      8 C8         -3.4399    2.6772   48.7380 C.ar    1  ZINC000740843182   -0.1300
      9 C9         -2.8818    2.1878   47.5560 C.ar    1  ZINC000740843182    0.0200
     10 C10        -1.6174    2.5878   47.1764 C.ar    1  ZINC000740843182   -0.6800
     11 S11        -0.9115    1.9709   45.6844 S.o2    1  ZINC000740843182    2.7000
     12 O12        -1.9805    1.4049   44.9388 O.2     1  ZINC000740843182   -0.9400
     13 O13        -0.0730    3.0017   45.1809 O.2     1  ZINC000740843182   -0.9500
     14 N14         0.0868    0.7156   46.0969 N.am    1  ZINC000740843182   -1.0900
     15 C15         1.2194    0.9458   46.9970 C.3     1  ZINC000740843182    0.0800
     16 C16         2.4628    0.0753   46.8050 C.3     1  ZINC000740843182   -0.1800
     17 C17         2.4898    1.5489   46.3941 C.3     1  ZINC000740843182   -0.1900
     18 C18        -0.9020    3.4725   47.9639 C.ar    1  ZINC000740843182    0.0100
     19 C19        -1.4482    3.9620   49.1366 C.ar    1  ZINC000740843182   -0.1200
     20 C20        -2.7146    3.5740   49.5264 C.ar    1  ZINC000740843182    0.0100
     21 Br21       -3.4600    4.2439   51.1300 Br      1  ZINC000740843182    0.0100
     22 C22        -7.0716    1.8821   52.3754 C.3     1  ZINC000740843182   -0.1400
     23 C23        -6.7171    2.0639   53.8526 C.3     1  ZINC000740843182    0.1000
     24 H24        -6.9150    1.1368   54.3906 H       1  ZINC000740843182    0.1000
     25 C25        -7.5665    3.1895   54.4463 C.3     1  ZINC000740843182   -0.1900
     26 O26        -5.3328    2.3978   53.9726 O.3     1  ZINC000740843182   -0.5600
     27 H27        -7.1836   -0.6688   53.3300 H       1  ZINC000740843182    0.0600
     28 H28        -8.1482   -0.5638   51.8377 H       1  ZINC000740843182    0.0600
     29 H29        -6.6321   -1.4961   51.8536 H       1  ZINC000740843182    0.0500
     30 H30        -6.5180   -0.2587   49.8785 H       1  ZINC000740843182    0.0700
     31 H31        -7.0294    1.4450   49.9457 H       1  ZINC000740843182    0.0700
     32 H32        -4.1820    0.6160   50.1549 H       1  ZINC000740843182    0.4000
     33 H33        -3.4387    1.4973   46.9401 H       1  ZINC000740843182    0.1500
     34 H34        -0.0784   -0.1720   45.7424 H       1  ZINC000740843182    0.4200
     35 H35         0.9594    1.2349   48.0154 H       1  ZINC000740843182    0.1400
     36 H36         3.0210   -0.2088   47.6970 H       1  ZINC000740843182    0.1100
     37 H37         2.4382   -0.6687   46.0087 H       1  ZINC000740843182    0.1000
     38 H38         2.4828    1.7743   45.3277 H       1  ZINC000740843182    0.1000
     39 H39         3.0657    2.2342   47.0160 H       1  ZINC000740843182    0.1100
     40 H40         0.0875    3.7821   47.6615 H       1  ZINC000740843182    0.1600
     41 H41        -0.8845    4.6523   49.7467 H       1  ZINC000740843182    0.1500
     42 H42        -6.7512    2.7599   51.8142 H       1  ZINC000740843182    0.0700
     43 H43        -8.1498    1.7589   52.2731 H       1  ZINC000740843182    0.0800
     44 H44        -8.6223    2.9347   54.3548 H       1  ZINC000740843182    0.0700
     45 H45        -7.3138    3.3190   55.4987 H       1  ZINC000740843182    0.0600
     46 H46        -7.3685    4.1165   53.9083 H       1  ZINC000740843182    0.0600
     47 H47        -5.0095    2.4136   54.8839 H       1  ZINC000740843182    0.3700
@<TRIPOS>BOND
     1     1     2    1
     2     1    27    1
     3     1    28    1
     4     1    29    1
     5     2     3    1
     6     2     4    1
     7     2    22    1
     8     4     5    1
     9     4    30    1
    10     4    31    1
    11     5     6   am
    12     5    32    1
    13     6     7    2
    14     6     8    1
    15     8    20   ar
    16     8     9   ar
    17     9    10   ar
    18     9    33    1
    19    10    11    1
    20    10    18   ar
    21    11    12    2
    22    11    13    2
    23    11    14   am
    24    14    15    1
    25    14    34    1
    26    15    17    1
    27    15    16    1
    28    15    35    1
    29    16    17    1
    30    16    36    1
    31    16    37    1
    32    17    38    1
    33    17    39    1
    34    18    19   ar
    35    18    40    1
    36    19    20   ar
    37    19    41    1
    38    20    21    1
    39    22    23    1
    40    22    42    1
    41    22    43    1
    42    23    24    1
    43    23    25    1
    44    23    26    1
    45    25    44    1
    46    25    45    1
    47    25    46    1
    48    26    47    1
@<TRIPOS>SUBSTRUCTURE
     1 ZINC000740843182        1 TEMP              0 ****  ****    0 ROOT


##########                                Name:    ZINC000190927708
##########                DOCK_Rotatable_Bonds:                  10
##########                         Heavy_Atoms:                  26
##########                    Molecular_Weight:             358.437
##########                DOCK_Rotatable_Bonds:                  10
##########                       Formal_Charge:           0.0499998
##########                     HBond_Acceptors:                   6
##########                        HBond_Donors:                   1
##########                         Heavy_Atoms:                  26
##########                          Grid_Score:          -31.482462
##########                     Grid_vdw_energy:          -30.395456
##########                      Grid_es_energy:           -1.087006
##########           Internal_energy_repulsive:           20.954678

@<TRIPOS>MOLECULE
ZINC000190927708
 52 53 1 0 0
SMALL
USER_CHARGES


@<TRIPOS>ATOM
      1 C1          2.1419    3.2341   47.7667 C.3     1  ZINC000190927708   -0.1500
      2 C2          0.6838    3.0131   48.1743 C.3     1  ZINC000190927708   -0.1500
      3 C3          0.2539    1.5977   47.7833 C.3     1  ZINC000190927708    0.1000
      4 N4         -1.0235    1.6553   47.0684 N.am    1  ZINC000190927708   -0.5900
      5 C5         -2.1640    1.8963   47.7450 C.2     1  ZINC000190927708    0.5300
      6 O6         -3.2213    1.9455   47.1530 O.2     1  ZINC000190927708   -0.5300
      7 C7         -2.1254    2.1048   49.2369 C.3     1  ZINC000190927708   -0.0800
      8 C8         -3.5328    2.1735   49.7712 C.2     1  ZINC000190927708   -0.1700
      9 C9         -4.1892    1.0317   50.0939 C.2     1  ZINC000190927708    0.0000
     10 C10        -5.5553    1.1327   50.6109 C.ar    1  ZINC000190927708   -0.1300
     11 C11        -6.2823   -0.0092   50.9617 C.ar    1  ZINC000190927708   -0.0500
     12 C12        -7.5550    0.1192   51.4422 C.ar    1  ZINC000190927708   -0.1500
     13 C13        -8.1328    1.3729   51.5851 C.ar    1  ZINC000190927708   -0.0600
     14 C14        -7.4351    2.5121   51.2452 C.ar    1  ZINC000190927708   -0.1600
     15 C15        -6.1381    2.4062   50.7545 C.ar    1  ZINC000190927708    0.1900
     16 N16        -5.4170    3.5288   50.4072 N.am    1  ZINC000190927708   -0.6300
     17 C17        -4.1606    3.4263   49.9392 C.2     1  ZINC000190927708    0.5500
     18 O18        -3.5528    4.4401   49.6420 O.2     1  ZINC000190927708   -0.5300
     19 C19        -1.0613    1.4509   45.6182 C.3     1  ZINC000190927708    0.1500
     20 H20        -2.0240    1.7832   45.2295 H       1  ZINC000190927708    0.1400
     21 C21        -0.8712   -0.0350   45.3076 C.3     1  ZINC000190927708   -0.1300
     22 C22        -1.4292   -0.3408   43.9162 C.3     1  ZINC000190927708   -0.1500
     23 C23         0.0433    2.2451   44.9700 C.2     1  ZINC000190927708    0.4500
     24 O24         0.0308    3.4521   45.0231 O.2     1  ZINC000190927708   -0.5000
     25 O25         1.0410    1.6116   44.3338 O.3     1  ZINC000190927708   -0.3500
     26 C26         2.0209    2.4403   43.6545 C.3     1  ZINC000190927708    0.0600
     27 C27         3.0918    1.5493   43.0220 C.3     1  ZINC000190927708   -0.1500
     28 H28         2.2407    3.1092   46.6884 H       1  ZINC000190927708    0.0600
     29 H29         2.4481    4.2424   48.0453 H       1  ZINC000190927708    0.0600
     30 H30         2.7756    2.5082   48.2761 H       1  ZINC000190927708    0.0600
     31 H31         0.5850    3.1379   49.2526 H       1  ZINC000190927708    0.0800
     32 H32         0.0501    3.7390   47.6648 H       1  ZINC000190927708    0.0700
     33 H33         1.0117    1.1530   47.1382 H       1  ZINC000190927708    0.0900
     34 H34         0.1404    0.9912   48.6818 H       1  ZINC000190927708    0.0900
     35 H35        -1.5986    1.2740   49.7064 H       1  ZINC000190927708    0.1100
     36 H36        -1.6060    3.0368   49.4602 H       1  ZINC000190927708    0.1200
     37 H37        -3.7150    0.0691   49.9721 H       1  ZINC000190927708    0.1400
     38 H38        -5.8398   -0.9884   50.8532 H       1  ZINC000190927708    0.1400
     39 H39        -8.1164   -0.7629   51.7128 H       1  ZINC000190927708    0.1300
     40 H40        -9.1398    1.4569   51.9664 H       1  ZINC000190927708    0.1300
     41 H41        -7.8936    3.4832   51.3601 H       1  ZINC000190927708    0.1300
     42 H42        -5.8203    4.4055   50.5059 H       1  ZINC000190927708    0.4200
     43 H43         0.1909   -0.2789   45.3348 H       1  ZINC000190927708    0.0900
     44 H44        -1.4000   -0.6321   46.0505 H       1  ZINC000190927708    0.0800
     45 H45        -1.2938   -1.3994   43.6949 H       1  ZINC000190927708    0.0600
     46 H46        -2.4912   -0.0969   43.8891 H       1  ZINC000190927708    0.0600
     47 H47        -0.9003    0.2563   43.1734 H       1  ZINC000190927708    0.0600
     48 H48         1.5273    3.0230   42.8767 H       1  ZINC000190927708    0.0700
     49 H49         2.4871    3.1146   44.3729 H       1  ZINC000190927708    0.0700
     50 H50         3.5855    0.9666   43.7998 H       1  ZINC000190927708    0.0700
     51 H51         2.6256    0.8750   42.3036 H       1  ZINC000190927708    0.0700
     52 H52         3.8274    2.1715   42.5121 H       1  ZINC000190927708    0.0800
@<TRIPOS>BOND
     1     1     2    1
     2     1    28    1
     3     1    29    1
     4     1    30    1
     5     2     3    1
     6     2    31    1
     7     2    32    1
     8     3     4    1
     9     3    33    1
    10     3    34    1
    11     4     5   am
    12     4    19    1
    13     5     6    2
    14     5     7    1
    15     7     8    1
    16     7    35    1
    17     7    36    1
    18     8    17    1
    19     8     9    2
    20     9    10    1
    21     9    37    1
    22    10    15   ar
    23    10    11   ar
    24    11    12   ar
    25    11    38    1
    26    12    13   ar
    27    12    39    1
    28    13    14   ar
    29    13    40    1
    30    14    15   ar
    31    14    41    1
    32    15    16    1
    33    16    17   am
    34    16    42    1
    35    17    18    2
    36    19    20    1
    37    19    21    1
    38    19    23    1
    39    21    22    1
    40    21    43    1
    41    21    44    1
    42    22    45    1
    43    22    46    1
    44    22    47    1
    45    23    24    2
    46    23    25    1
    47    25    26    1
    48    26    27    1
    49    26    48    1
    50    26    49    1
    51    27    50    1
    52    27    51    1
    53    27    52    1
@<TRIPOS>SUBSTRUCTURE
     1 ZINC000190927708        1 TEMP              0 ****  ****    0 ROOT


##########                                Name:    ZINC000548281822
##########                DOCK_Rotatable_Bonds:                   6
##########                         Heavy_Atoms:                  24
##########                    Molecular_Weight:             332.406
##########                DOCK_Rotatable_Bonds:                   6
##########                       Formal_Charge:        -5.58794e-08
##########                     HBond_Acceptors:                   8
##########                        HBond_Donors:                   2
##########                         Heavy_Atoms:                  24
##########                          Grid_Score:          -31.477583
##########                     Grid_vdw_energy:          -31.282438
##########                      Grid_es_energy:           -0.195144
##########           Internal_energy_repulsive:            6.847506

@<TRIPOS>MOLECULE
ZINC000548281822
 48 50 1 0 0
SMALL
USER_CHARGES


@<TRIPOS>ATOM
      1 C1        -11.4443   -0.2435   52.0136 C.3     1  ZINC000548281822   -0.1700
      2 C2        -10.3925   -0.0509   53.1080 C.3     1  ZINC000548281822    0.2600
      3 H3        -10.6340    0.8373   53.6918 H       1  ZINC000548281822    0.1400
      4 N4        -10.3806   -1.2238   53.9856 N.am    1  ZINC000548281822   -0.7400
      5 C5        -11.3490   -1.3843   54.9091 C.2     1  ZINC000548281822    0.7100
      6 O6        -12.2317   -0.5548   55.0150 O.2     1  ZINC000548281822   -0.5700
      7 N7        -11.3389   -2.4642   55.7155 N.am    1  ZINC000548281822   -0.7400
      8 C8        -12.3925   -2.6395   56.7182 C.3     1  ZINC000548281822    0.1600
      9 H9        -13.2529   -2.0249   56.4534 H       1  ZINC000548281822    0.1000
     10 C10       -12.8116   -4.1117   56.7676 C.3     1  ZINC000548281822   -0.1400
     11 C11       -14.0647   -4.2580   57.6378 C.3     1  ZINC000548281822    0.1100
     12 N12       -13.8351   -3.5771   58.9142 N.pl3   1  ZINC000548281822   -0.4600
     13 C13       -14.5319   -3.7245   60.0764 C.2     1  ZINC000548281822   -0.0500
     14 C14       -13.9613   -2.8991   60.9774 C.2     1  ZINC000548281822   -0.0300
     15 N15       -12.9419   -2.2655   60.3750 N.2     1  ZINC000548281822   -0.4900
     16 C16       -12.8597   -2.6652   59.1397 C.2     1  ZINC000548281822    0.2100
     17 C17       -11.8650   -2.2164   58.0950 C.3     1  ZINC000548281822   -0.0500
     18 C18        -9.0349    0.1174   52.4759 C.2     1  ZINC000548281822    0.1700
     19 N19        -8.4415    1.2514   52.1904 N.2     1  ZINC000548281822   -0.4600
     20 C20        -7.2596    0.9140   51.6444 C.2     1  ZINC000548281822    0.1900
     21 C21        -6.2032    1.8662   51.1459 C.3     1  ZINC000548281822    0.0200
     22 C22        -5.3796    1.1861   50.0504 C.3     1  ZINC000548281822   -0.1400
     23 C23        -6.8730    3.1187   50.5770 C.3     1  ZINC000548281822   -0.1400
     24 C24        -5.2845    2.2606   52.3040 C.3     1  ZINC000548281822   -0.1400
     25 N25        -7.1956   -0.3837   51.6259 N.2     1  ZINC000548281822   -0.3700
     26 O26        -8.2032   -0.8606   52.1045 O.3     1  ZINC000548281822    0.0800
     27 H27       -11.2027   -1.1317   51.4297 H       1  ZINC000548281822    0.0700
     28 H28       -12.4262   -0.3651   52.4708 H       1  ZINC000548281822    0.0900
     29 H29       -11.4532    0.6292   51.3606 H       1  ZINC000548281822    0.0800
     30 H30        -9.6757   -1.8850   53.9020 H       1  ZINC000548281822    0.4000
     31 H31       -10.6341   -3.1253   55.6319 H       1  ZINC000548281822    0.4000
     32 H32       -13.0273   -4.4622   55.7584 H       1  ZINC000548281822    0.1000
     33 H33       -12.0026   -4.7056   57.1932 H       1  ZINC000548281822    0.0800
     34 H34       -14.9167   -3.8056   57.1304 H       1  ZINC000548281822    0.0900
     35 H35       -14.2631   -5.3146   57.8180 H       1  ZINC000548281822    0.1000
     36 H36       -15.3773   -4.3755   60.2432 H       1  ZINC000548281822    0.1800
     37 H37       -14.2706   -2.7696   62.0040 H       1  ZINC000548281822    0.1700
     38 H38       -10.8999   -2.6884   58.2796 H       1  ZINC000548281822    0.0900
     39 H39       -11.7577   -1.1324   58.1311 H       1  ZINC000548281822    0.1000
     40 H40        -6.0341    0.9051   49.2252 H       1  ZINC000548281822    0.0600
     41 H41        -4.6155    1.8748   49.6898 H       1  ZINC000548281822    0.0700
     42 H42        -4.9024    0.2938   50.4557 H       1  ZINC000548281822    0.0700
     43 H43        -7.4597    3.6032   51.3574 H       1  ZINC000548281822    0.0600
     44 H44        -6.1089    3.8073   50.2164 H       1  ZINC000548281822    0.0700
     45 H45        -7.5275    2.8378   49.7519 H       1  ZINC000548281822    0.0600
     46 H46        -4.8073    1.3683   52.7094 H       1  ZINC000548281822    0.0700
     47 H47        -4.5204    2.9492   51.9435 H       1  ZINC000548281822    0.0700
     48 H48        -5.8712    2.7451   53.0845 H       1  ZINC000548281822    0.0600
@<TRIPOS>BOND
     1     1     2    1
     2     1    27    1
     3     1    28    1
     4     1    29    1
     5     2     3    1
     6     2     4    1
     7     2    18    1
     8     4     5   am
     9     4    30    1
    10     5     6    2
    11     5     7   am
    12     7     8    1
    13     7    31    1
    14     8     9    1
    15     8    17    1
    16     8    10    1
    17    10    11    1
    18    10    32    1
    19    10    33    1
    20    11    12    1
    21    11    34    1
    22    11    35    1
    23    12    16    1
    24    12    13    1
    25    13    14    2
    26    13    36    1
    27    14    15    1
    28    14    37    1
    29    15    16    2
    30    16    17    1
    31    17    38    1
    32    17    39    1
    33    18    26    1
    34    18    19    2
    35    19    20    1
    36    20    21    1
    37    20    25    2
    38    21    22    1
    39    21    23    1
    40    21    24    1
    41    22    40    1
    42    22    41    1
    43    22    42    1
    44    23    43    1
    45    23    44    1
    46    23    45    1
    47    24    46    1
    48    24    47    1
    49    24    48    1
    50    25    26    1
@<TRIPOS>SUBSTRUCTURE
     1 ZINC000548281822        1 TEMP              0 ****  ****    0 ROOT


##########                                Name:    ZINC000470948647
##########                DOCK_Rotatable_Bonds:                   6
##########                         Heavy_Atoms:                  29
##########                    Molecular_Weight:             412.556
##########                DOCK_Rotatable_Bonds:                   6
##########                       Formal_Charge:           0.0100001
##########                     HBond_Acceptors:                   7
##########                        HBond_Donors:                   1
##########                         Heavy_Atoms:                  29
##########                          Grid_Score:          -31.452415
##########                     Grid_vdw_energy:          -27.769152
##########                      Grid_es_energy:           -3.683264
##########           Internal_energy_repulsive:           21.247459

@<TRIPOS>MOLECULE
ZINC000470948647
 57 60 1 0 0
SMALL
USER_CHARGES


@<TRIPOS>ATOM
      1 C1         -6.1696    1.6487   49.4784 C.3     1  ZINC000470948647   -0.1100
      2 C2         -5.9763    2.0271   50.9242 C.ar    1  ZINC000470948647   -0.1000
      3 C3         -5.0166    2.9600   51.2707 C.ar    1  ZINC000470948647   -0.1100
      4 C4         -4.8369    3.3089   52.5952 C.ar    1  ZINC000470948647   -0.1100
      5 C5         -5.6217    2.7220   53.5788 C.ar    1  ZINC000470948647    0.1400
      6 N6         -5.4425    3.0736   54.9212 N.am    1  ZINC000470948647   -0.6700
      7 C7         -6.1418    4.0980   55.4486 C.2     1  ZINC000470948647    0.5100
      8 O8         -6.9264    4.7150   54.7596 O.2     1  ZINC000470948647   -0.4800
      9 C9         -5.9489    4.4767   56.8945 C.3     1  ZINC000470948647    0.1200
     10 H10        -6.0101    5.5614   56.9828 H       1  ZINC000470948647    0.1200
     11 C11        -7.0858    3.8451   57.7295 C.3     1  ZINC000470948647   -0.0700
     12 S12        -6.2594    2.3332   58.3808 S.3     1  ZINC000470948647   -0.2500
     13 C13        -4.5995    3.1242   58.4662 C.3     1  ZINC000470948647    0.1600
     14 N14        -4.6250    4.0468   57.3180 N.am    1  ZINC000470948647   -0.6000
     15 C15        -3.5014    4.4668   56.7034 C.2     1  ZINC000470948647    0.6300
     16 O16        -3.5737    5.2299   55.7597 O.2     1  ZINC000470948647   -0.5100
     17 C17        -2.1822    4.0001   57.1763 C.2     1  ZINC000470948647   -0.0100
     18 N18        -1.8681    3.6544   58.4089 N.2     1  ZINC000470948647   -0.2700
     19 N19        -0.6351    3.2987   58.4664 N.pl3   1  ZINC000470948647   -0.2700
     20 C20         0.0525    2.8527   59.6808 C.3     1  ZINC000470948647    0.1500
     21 C21        -0.8408    1.8705   60.4412 C.3     1  ZINC000470948647   -0.1300
     22 C22        -0.1226    1.4047   61.7094 C.3     1  ZINC000470948647   -0.1200
     23 C23         1.1877    0.7128   61.3286 C.3     1  ZINC000470948647   -0.1300
     24 C24         2.0810    1.6950   60.5681 C.3     1  ZINC000470948647   -0.1200
     25 C25         1.3629    2.1608   59.3000 C.3     1  ZINC000470948647   -0.1300
     26 C26        -0.0639    3.3948   57.2466 C.2     1  ZINC000470948647   -0.0100
     27 C27        -1.0169    3.8331   56.3911 C.2     1  ZINC000470948647   -0.1700
     28 C28        -6.5853    1.7854   53.2273 C.ar    1  ZINC000470948647   -0.1100
     29 C29        -7.4395    1.1463   54.2917 C.3     1  ZINC000470948647   -0.1100
     30 C30        -6.7632    1.4445   51.9010 C.ar    1  ZINC000470948647   -0.1000
     31 H31        -6.9058    2.3123   49.0244 H       1  ZINC000470948647    0.0700
     32 H32        -5.2215    1.7413   48.9487 H       1  ZINC000470948647    0.0700
     33 H33        -6.5215    0.6189   49.4161 H       1  ZINC000470948647    0.0700
     34 H34        -4.4065    3.4162   50.5052 H       1  ZINC000470948647    0.1200
     35 H35        -4.0866    4.0372   52.8653 H       1  ZINC000470948647    0.1400
     36 H36        -4.8150    2.5801   55.4724 H       1  ZINC000470948647    0.4100
     37 H37        -7.3890    4.5062   58.5414 H       1  ZINC000470948647    0.1200
     38 H38        -7.9367    3.5858   57.0996 H       1  ZINC000470948647    0.1200
     39 H39        -4.4798    3.6715   59.4012 H       1  ZINC000470948647    0.1000
     40 H40        -3.8106    2.3813   58.3479 H       1  ZINC000470948647    0.1400
     41 H41         0.2670    3.7137   60.3139 H       1  ZINC000470948647    0.1100
     42 H42        -1.7743    2.3635   60.7124 H       1  ZINC000470948647    0.0800
     43 H43        -1.0552    1.0095   59.8081 H       1  ZINC000470948647    0.0800
     44 H44         0.0919    2.2657   62.3425 H       1  ZINC000470948647    0.0700
     45 H45        -0.7590    0.7049   62.2511 H       1  ZINC000470948647    0.0800
     46 H46         1.6993    0.3810   62.2319 H       1  ZINC000470948647    0.0700
     47 H47         0.9733   -0.1483   60.6954 H       1  ZINC000470948647    0.0700
     48 H48         2.2954    2.5560   61.2012 H       1  ZINC000470948647    0.0700
     49 H49         3.0145    1.2020   60.2969 H       1  ZINC000470948647    0.0700
     50 H50         1.1484    1.2997   58.6668 H       1  ZINC000470948647    0.0700
     51 H51         1.9992    2.8605   58.7582 H       1  ZINC000470948647    0.0700
     52 H52         0.9609    3.1609   56.9989 H       1  ZINC000470948647    0.1800
     53 H53        -0.9088    4.0224   55.3334 H       1  ZINC000470948647    0.1600
     54 H54        -8.3382    1.7441   54.4437 H       1  ZINC000470948647    0.0700
     55 H55        -7.7207    0.1414   53.9769 H       1  ZINC000470948647    0.0700
     56 H56        -6.8777    1.0913   55.2241 H       1  ZINC000470948647    0.0600
     57 H57        -7.5125    0.7166   51.6271 H       1  ZINC000470948647    0.1300
@<TRIPOS>BOND
     1     1     2    1
     2     1    31    1
     3     1    32    1
     4     1    33    1
     5     2    30   ar
     6     2     3   ar
     7     3     4   ar
     8     3    34    1
     9     4     5   ar
    10     4    35    1
    11     5     6    1
    12     5    28   ar
    13     6     7   am
    14     6    36    1
    15     7     8    2
    16     7     9    1
    17     9    10    1
    18     9    14    1
    19     9    11    1
    20    11    12    1
    21    11    37    1
    22    11    38    1
    23    12    13    1
    24    13    14    1
    25    13    39    1
    26    13    40    1
    27    14    15   am
    28    15    16    2
    29    15    17    1
    30    17    27    1
    31    17    18    2
    32    18    19    1
    33    19    20    1
    34    19    26    1
    35    20    25    1
    36    20    21    1
    37    20    41    1
    38    21    22    1
    39    21    42    1
    40    21    43    1
    41    22    23    1
    42    22    44    1
    43    22    45    1
    44    23    24    1
    45    23    46    1
    46    23    47    1
    47    24    25    1
    48    24    48    1
    49    24    49    1
    50    25    50    1
    51    25    51    1
    52    26    27    2
    53    26    52    1
    54    27    53    1
    55    28    29    1
    56    28    30   ar
    57    29    54    1
    58    29    55    1
    59    29    56    1
    60    30    57    1
@<TRIPOS>SUBSTRUCTURE
     1 ZINC000470948647        1 TEMP              0 ****  ****    0 ROOT


##########                                Name:    ZINC000541568816
##########                DOCK_Rotatable_Bonds:                   8
##########                         Heavy_Atoms:                  25
##########                    Molecular_Weight:             411.339
##########                DOCK_Rotatable_Bonds:                   8
##########                       Formal_Charge:          -0.0100007
##########                     HBond_Acceptors:                   5
##########                        HBond_Donors:                   1
##########                         Heavy_Atoms:                  25
##########                          Grid_Score:          -31.450233
##########                     Grid_vdw_energy:          -30.991924
##########                      Grid_es_energy:           -0.458310
##########           Internal_energy_repulsive:           23.514389

@<TRIPOS>MOLECULE
ZINC000541568816
 52 54 1 0 0
SMALL
USER_CHARGES


@<TRIPOS>ATOM
      1 C1        -14.4024   -3.0594   61.2239 C.3     1  ZINC000541568816   -0.1500
      2 C2        -14.0976   -2.4330   59.8616 C.3     1  ZINC000541568816    0.0600
      3 O3        -13.4147   -3.3839   59.0422 O.3     1  ZINC000541568816   -0.3700
      4 C4        -12.9085   -2.8414   57.8210 C.3     1  ZINC000541568816    0.0700
      5 H5        -13.6084   -2.1597   57.3380 H       1  ZINC000541568816    0.0900
      6 C6        -12.3238   -3.9011   56.8704 C.3     1  ZINC000541568816   -0.1700
      7 C7        -11.1984   -2.8969   56.5656 C.3     1  ZINC000541568816    0.1500
      8 H8        -10.2123   -3.3551   56.4900 H       1  ZINC000541568816    0.1100
      9 N9        -11.4977   -2.0013   55.4455 N.am    1  ZINC000541568816   -0.7200
     10 C10       -10.5076   -1.5893   54.6291 C.2     1  ZINC000541568816    0.7100
     11 O11        -9.3664   -1.9622   54.8213 O.2     1  ZINC000541568816   -0.5800
     12 N12       -10.7826   -0.7641   53.5995 N.am    1  ZINC000541568816   -0.6300
     13 C13       -12.1580   -0.3164   53.3669 C.3     1  ZINC000541568816    0.1000
     14 C14       -12.3523    1.0729   53.9778 C.3     1  ZINC000541568816   -0.1800
     15 C15        -9.7061   -0.3150   52.7131 C.3     1  ZINC000541568816    0.1700
     16 C16        -8.6727    0.4318   53.5164 C.ar    1  ZINC000541568816   -0.0700
     17 C17        -9.0583    1.1840   54.6097 C.ar    1  ZINC000541568816   -0.1000
     18 C18        -8.1102    1.8692   55.3468 C.ar    1  ZINC000541568816   -0.1000
     19 C19        -6.7763    1.8018   54.9909 C.ar    1  ZINC000541568816   -0.1200
     20 C20        -6.3896    1.0496   53.8974 C.ar    1  ZINC000541568816   -0.0900
     21 C21        -7.3371    0.3599   53.1629 C.ar    1  ZINC000541568816   -0.0900
     22 Br22       -6.8088   -0.6693   51.6670 Br      1  ZINC000541568816   -0.0500
     23 C23       -11.4879   -2.2806   57.9401 C.3     1  ZINC000541568816    0.0800
     24 C24       -10.6608   -2.8727   59.0945 C.3     1  ZINC000541568816   -0.1200
     25 C25        -9.6954   -1.7031   59.4353 C.3     1  ZINC000541568816   -0.1600
     26 C26       -10.5992   -0.4783   59.1429 C.3     1  ZINC000541568816    0.0500
     27 O27       -11.3925   -0.8591   58.0051 O.3     1  ZINC000541568816   -0.3600
     28 H28       -15.0315   -3.9389   61.0868 H       1  ZINC000541568816    0.0600
     29 H29       -13.4697   -3.3513   61.7064 H       1  ZINC000541568816    0.0600
     30 H30       -14.9234   -2.3340   61.8489 H       1  ZINC000541568816    0.0700
     31 H31       -15.0304   -2.1410   59.3791 H       1  ZINC000541568816    0.0500
     32 H32       -13.4686   -1.5534   59.9987 H       1  ZINC000541568816    0.0500
     33 H33       -11.9793   -4.8013   57.3795 H       1  ZINC000541568816    0.1000
     34 H34       -12.9606   -4.1166   56.0125 H       1  ZINC000541568816    0.0800
     35 H35       -12.4083   -1.7048   55.2915 H       1  ZINC000541568816    0.4000
     36 H36       -12.3490   -0.2717   52.2947 H       1  ZINC000541568816    0.0900
     37 H37       -12.8517   -1.0175   53.8308 H       1  ZINC000541568816    0.0700
     38 H38       -11.6585    1.7740   53.5140 H       1  ZINC000541568816    0.0600
     39 H39       -13.3755    1.4060   53.8048 H       1  ZINC000541568816    0.0700
     40 H40       -12.1611    1.0283   55.0500 H       1  ZINC000541568816    0.0600
     41 H41        -9.2422   -1.1794   52.2381 H       1  ZINC000541568816    0.1000
     42 H42       -10.1167    0.3435   51.9476 H       1  ZINC000541568816    0.1100
     43 H43       -10.1004    1.2370   54.8882 H       1  ZINC000541568816    0.1300
     44 H44        -8.4120    2.4576   56.2008 H       1  ZINC000541568816    0.1300
     45 H45        -6.0361    2.3372   55.5669 H       1  ZINC000541568816    0.1300
     46 H46        -5.3474    0.9973   53.6191 H       1  ZINC000541568816    0.1300
     47 H47       -11.2974   -3.1125   59.9462 H       1  ZINC000541568816    0.1000
     48 H48       -10.1064   -3.7514   58.7651 H       1  ZINC000541568816    0.0900
     49 H49        -9.3993   -1.7313   60.4838 H       1  ZINC000541568816    0.0900
     50 H50        -8.8226   -1.7116   58.7824 H       1  ZINC000541568816    0.0800
     51 H51       -11.2413   -0.2693   59.9986 H       1  ZINC000541568816    0.0600
     52 H52        -9.9897    0.3933   58.9045 H       1  ZINC000541568816    0.0900
@<TRIPOS>BOND
     1     1     2    1
     2     1    28    1
     3     1    29    1
     4     1    30    1
     5     2     3    1
     6     2    31    1
     7     2    32    1
     8     3     4    1
     9     4     5    1
    10     4    23    1
    11     4     6    1
    12     6     7    1
    13     6    33    1
    14     6    34    1
    15     7     8    1
    16     7     9    1
    17     7    23    1
    18     9    10   am
    19     9    35    1
    20    10    11    2
    21    10    12   am
    22    12    13    1
    23    12    15    1
    24    13    14    1
    25    13    36    1
    26    13    37    1
    27    14    38    1
    28    14    39    1
    29    14    40    1
    30    15    16    1
    31    15    41    1
    32    15    42    1
    33    16    21   ar
    34    16    17   ar
    35    17    18   ar
    36    17    43    1
    37    18    19   ar
    38    18    44    1
    39    19    20   ar
    40    19    45    1
    41    20    21   ar
    42    20    46    1
    43    21    22    1
    44    23    27    1
    45    23    24    1
    46    24    25    1
    47    24    47    1
    48    24    48    1
    49    25    26    1
    50    25    49    1
    51    25    50    1
    52    26    27    1
    53    26    51    1
    54    26    52    1
@<TRIPOS>SUBSTRUCTURE
     1 ZINC000541568816        1 TEMP              0 ****  ****    0 ROOT


##########                                Name:    ZINC000537799672
##########                DOCK_Rotatable_Bonds:                   9
##########                         Heavy_Atoms:                  29
##########                    Molecular_Weight:             401.478
##########                DOCK_Rotatable_Bonds:                   9
##########                       Formal_Charge:        -4.47035e-07
##########                     HBond_Acceptors:                   6
##########                        HBond_Donors:                   1
##########                         Heavy_Atoms:                  29
##########                          Grid_Score:          -31.439198
##########                     Grid_vdw_energy:          -30.494762
##########                      Grid_es_energy:           -0.944436
##########           Internal_energy_repulsive:           16.145727

@<TRIPOS>MOLECULE
ZINC000537799672
 57 59 1 0 0
SMALL
USER_CHARGES


@<TRIPOS>ATOM
      1 C1        -11.5309    2.8586   53.6320 C.3     1  ZINC000537799672    0.0300
      2 O2        -11.6618    1.6794   54.4284 O.3     1  ZINC000537799672   -0.3800
      3 C3        -11.1859    0.4920   53.7916 C.3     1  ZINC000537799672    0.1200
      4 H4        -11.6669    0.3832   52.8196 H       1  ZINC000537799672    0.0900
      5 C5         -9.6933    0.5853   53.6058 C.ar    1  ZINC000537799672   -0.1300
      6 C6         -9.0941   -0.0158   52.5145 C.ar    1  ZINC000537799672   -0.0600
      7 C7         -7.7255    0.0692   52.3431 C.ar    1  ZINC000537799672   -0.1500
      8 C8         -6.9542    0.7568   53.2647 C.ar    1  ZINC000537799672    0.1000
      9 F9         -5.6162    0.8408   53.0979 F       1  ZINC000537799672   -0.1400
     10 C10        -7.5554    1.3588   54.3571 C.ar    1  ZINC000537799672   -0.1500
     11 C11        -8.9248    1.2767   54.5238 C.ar    1  ZINC000537799672   -0.0800
     12 C12       -11.5163   -0.7216   54.6627 C.3     1  ZINC000537799672    0.1600
     13 H13       -11.0551   -1.6120   54.2355 H       1  ZINC000537799672    0.1000
     14 C14       -13.0336   -0.9104   54.7198 C.3     1  ZINC000537799672   -0.1600
     15 N15       -10.9999   -0.5060   56.0167 N.am    1  ZINC000537799672   -0.7100
     16 C16        -9.9308   -1.2033   56.4491 C.2     1  ZINC000537799672    0.5600
     17 O17        -9.3941   -2.0101   55.7153 O.2     1  ZINC000537799672   -0.5400
     18 C18        -9.4106   -0.9870   57.8161 C.ar    1  ZINC000537799672   -0.1400
     19 C19        -8.6099    0.1218   58.0939 C.ar    1  ZINC000537799672   -0.0800
     20 C20        -8.1281    0.3181   59.3718 C.ar    1  ZINC000537799672   -0.1300
     21 C21        -8.4369   -0.5813   60.3765 C.ar    1  ZINC000537799672   -0.0900
     22 C22        -9.2300   -1.6829   60.1077 C.ar    1  ZINC000537799672   -0.1100
     23 C23        -9.7231   -1.8876   58.8357 C.ar    1  ZINC000537799672   -0.0300
     24 C24       -10.5871   -3.0877   58.5448 C.3     1  ZINC000537799672    0.1100
     25 O25       -11.9138   -2.6557   58.2358 O.3     1  ZINC000537799672   -0.3800
     26 C26       -12.8556   -2.8728   59.2884 C.3     1  ZINC000537799672    0.0900
     27 C27       -13.0118   -1.5890   60.1092 C.3     1  ZINC000537799672   -0.1800
     28 C28       -14.0795   -1.8066   61.1844 C.3     1  ZINC000537799672    0.0600
     29 O29       -15.3090   -2.1864   60.5630 O.3     1  ZINC000537799672   -0.3800
     30 C30       -15.2353   -3.4053   59.8205 C.3     1  ZINC000537799672    0.0600
     31 C31       -14.2139   -3.2519   58.6905 C.3     1  ZINC000537799672   -0.1500
     32 H32       -12.0347    2.7097   52.6769 H       1  ZINC000537799672    0.0500
     33 H33       -11.9833    3.7017   54.1540 H       1  ZINC000537799672    0.0900
     34 H34       -10.4747    3.0637   53.4574 H       1  ZINC000537799672    0.0400
     35 H35        -9.6959   -0.5521   51.7958 H       1  ZINC000537799672    0.1300
     36 H36        -7.2576   -0.4011   51.4908 H       1  ZINC000537799672    0.1400
     37 H37        -6.9547    1.8953   55.0767 H       1  ZINC000537799672    0.1400
     38 H38        -9.3940    1.7465   55.3756 H       1  ZINC000537799672    0.1300
     39 H39       -13.4298   -0.9767   53.7065 H       1  ZINC000537799672    0.0700
     40 H40       -13.2655   -1.8276   55.2612 H       1  ZINC000537799672    0.0600
     41 H41       -13.4864   -0.0616   55.2321 H       1  ZINC000537799672    0.0700
     42 H42       -11.4275    0.1387   56.6019 H       1  ZINC000537799672    0.4000
     43 H43        -8.3676    0.8243   57.3102 H       1  ZINC000537799672    0.1300
     44 H44        -7.5084    1.1758   59.5881 H       1  ZINC000537799672    0.1300
     45 H45        -8.0570   -0.4232   61.3750 H       1  ZINC000537799672    0.1300
     46 H46        -9.4670   -2.3816   60.8963 H       1  ZINC000537799672    0.1400
     47 H47       -10.1760   -3.6343   57.6961 H       1  ZINC000537799672    0.0800
     48 H48       -10.6112   -3.7384   59.4189 H       1  ZINC000537799672    0.0800
     49 H49       -12.5032   -3.6784   59.9326 H       1  ZINC000537799672    0.0600
     50 H50       -12.0620   -1.3422   60.5837 H       1  ZINC000537799672    0.0800
     51 H51       -13.3156   -0.7725   59.4540 H       1  ZINC000537799672    0.0800
     52 H52       -13.7563   -2.5958   61.8632 H       1  ZINC000537799672    0.0500
     53 H53       -14.2253   -0.8827   61.7442 H       1  ZINC000537799672    0.1000
     54 H54       -14.9271   -4.2155   60.4815 H       1  ZINC000537799672    0.0500
     55 H55       -16.2138   -3.6331   59.3977 H       1  ZINC000537799672    0.1000
     56 H56       -14.5422   -2.4690   58.0067 H       1  ZINC000537799672    0.0800
     57 H57       -14.1239   -4.1944   58.1504 H       1  ZINC000537799672    0.0800
@<TRIPOS>BOND
     1     1     2    1
     2     1    32    1
     3     1    33    1
     4     1    34    1
     5     2     3    1
     6     3     4    1
     7     3     5    1
     8     3    12    1
     9     5    11   ar
    10     5     6   ar
    11     6     7   ar
    12     6    35    1
    13     7     8   ar
    14     7    36    1
    15     8     9    1
    16     8    10   ar
    17    10    11   ar
    18    10    37    1
    19    11    38    1
    20    12    13    1
    21    12    14    1
    22    12    15    1
    23    14    39    1
    24    14    40    1
    25    14    41    1
    26    15    16   am
    27    15    42    1
    28    16    17    2
    29    16    18    1
    30    18    23   ar
    31    18    19   ar
    32    19    20   ar
    33    19    43    1
    34    20    21   ar
    35    20    44    1
    36    21    22   ar
    37    21    45    1
    38    22    23   ar
    39    22    46    1
    40    23    24    1
    41    24    25    1
    42    24    47    1
    43    24    48    1
    44    25    26    1
    45    26    31    1
    46    26    27    1
    47    26    49    1
    48    27    28    1
    49    27    50    1
    50    27    51    1
    51    28    29    1
    52    28    52    1
    53    28    53    1
    54    29    30    1
    55    30    31    1
    56    30    54    1
    57    30    55    1
    58    31    56    1
    59    31    57    1
@<TRIPOS>SUBSTRUCTURE
     1 ZINC000537799672        1 TEMP              0 ****  ****    0 ROOT


##########                                Name:    ZINC000182378855
##########                DOCK_Rotatable_Bonds:                   8
##########                         Heavy_Atoms:                  27
##########                    Molecular_Weight:              394.83
##########                DOCK_Rotatable_Bonds:                   8
##########                       Formal_Charge:          -0.0200001
##########                     HBond_Acceptors:                   8
##########                        HBond_Donors:                   1
##########                         Heavy_Atoms:                  27
##########                          Grid_Score:          -31.437233
##########                     Grid_vdw_energy:          -30.847757
##########                      Grid_es_energy:           -0.589475
##########           Internal_energy_repulsive:            7.232310

@<TRIPOS>MOLECULE
ZINC000182378855
 47 49 1 0 0
SMALL
USER_CHARGES


@<TRIPOS>ATOM
      1 C1         -7.5230    0.4687   54.3798 C.3     1  ZINC000182378855    0.0300
      2 O2         -7.9416    0.4369   55.7457 O.3     1  ZINC000182378855   -0.3900
      3 C3         -7.9109    1.7105   56.3930 C.3     1  ZINC000182378855    0.0600
      4 C4         -8.4018    1.5620   57.8344 C.3     1  ZINC000182378855    0.0700
      5 O5         -7.6263    0.5640   58.5014 O.3     1  ZINC000182378855   -0.2900
      6 C6         -8.3040   -0.3547   59.2346 C.ar    1  ZINC000182378855    0.3300
      7 C7         -9.1562   -1.2474   58.5985 C.ar    1  ZINC000182378855   -0.1300
      8 C8         -9.8466   -2.1868   59.3666 C.ar    1  ZINC000182378855   -0.0600
      9 C9        -10.7664   -3.1600   58.7324 C.2     1  ZINC000182378855    0.5600
     10 O10       -10.3871   -4.2901   58.4971 O.2     1  ZINC000182378855   -0.5200
     11 N11       -12.0237   -2.7916   58.4165 N.am    1  ZINC000182378855   -0.7100
     12 C12       -12.9337   -3.7544   57.7910 C.3     1  ZINC000182378855    0.1200
     13 H13       -12.7614   -4.7548   58.1878 H       1  ZINC000182378855    0.1100
     14 C14       -12.7611   -3.7439   56.2555 C.3     1  ZINC000182378855   -0.1700
     15 C15       -14.1466   -3.3135   55.7250 C.3     1  ZINC000182378855    0.0400
     16 O16       -14.7505   -2.5867   56.8173 O.3     1  ZINC000182378855   -0.3600
     17 C17       -14.4031   -3.3290   58.0064 C.3     1  ZINC000182378855    0.1100
     18 H18       -15.0415   -4.2069   58.1058 H       1  ZINC000182378855    0.1000
     19 C19       -14.5219   -2.4517   59.2260 C.ar    1  ZINC000182378855   -0.0500
     20 C20       -14.5225   -3.0181   60.4868 C.ar    1  ZINC000182378855   -0.1100
     21 C21       -14.6257   -2.2144   61.6070 C.ar    1  ZINC000182378855   -0.0800
     22 C22       -14.7397   -0.8434   61.4666 C.ar    1  ZINC000182378855   -0.0700
     23 Cl23      -14.8758    0.1654   62.8727 Cl      1  ZINC000182378855   -0.0400
     24 C24       -14.7448   -0.2755   60.2025 C.ar    1  ZINC000182378855    0.1200
     25 F25       -14.8556    1.0638   60.0633 F       1  ZINC000182378855   -0.1200
     26 C26       -14.6357   -1.0814   59.0826 C.ar    1  ZINC000182378855   -0.1300
     27 C27        -9.6462   -2.1849   60.7515 C.ar    1  ZINC000182378855   -0.1900
     28 C28        -8.7808   -1.2625   61.3039 C.ar    1  ZINC000182378855    0.1400
     29 N29        -8.1413   -0.3930   60.5460 N.ar    1  ZINC000182378855   -0.5200
     30 H30        -6.4977    0.8341   54.3225 H       1  ZINC000182378855    0.0400
     31 H31        -7.5748   -0.5360   53.9604 H       1  ZINC000182378855    0.0900
     32 H32        -8.1774    1.1325   53.8147 H       1  ZINC000182378855    0.0400
     33 H33        -6.8902    2.0929   56.3943 H       1  ZINC000182378855    0.0600
     34 H34        -8.5586    2.4054   55.8584 H       1  ZINC000182378855    0.0700
     35 H35        -8.2941    2.5137   58.3549 H       1  ZINC000182378855    0.0800
     36 H36        -9.4508    1.2657   57.8324 H       1  ZINC000182378855    0.0800
     37 H37        -9.2832   -1.2154   57.5265 H       1  ZINC000182378855    0.1600
     38 H38       -12.3261   -1.8891   58.6031 H       1  ZINC000182378855    0.4000
     39 H39       -11.9987   -3.0223   55.9620 H       1  ZINC000182378855    0.0900
     40 H40       -12.5058   -4.7396   55.8931 H       1  ZINC000182378855    0.0900
     41 H41       -14.0355   -2.6669   54.8546 H       1  ZINC000182378855    0.1000
     42 H42       -14.7450   -4.1888   55.4727 H       1  ZINC000182378855    0.0700
     43 H43       -14.4384   -4.0892   60.5970 H       1  ZINC000182378855    0.1500
     44 H44       -14.6217   -2.6577   62.5917 H       1  ZINC000182378855    0.1500
     45 H45       -14.6391   -0.6400   58.0969 H       1  ZINC000182378855    0.1500
     46 H46       -10.1617   -2.8961   61.3798 H       1  ZINC000182378855    0.1400
     47 H47        -8.6215   -1.2556   62.3721 H       1  ZINC000182378855    0.1700
@<TRIPOS>BOND
     1     1     2    1
     2     1    30    1
     3     1    31    1
     4     1    32    1
     5     2     3    1
     6     3     4    1
     7     3    33    1
     8     3    34    1
     9     4     5    1
    10     4    35    1
    11     4    36    1
    12     5     6    1
    13     6    29   ar
    14     6     7   ar
    15     7     8   ar
    16     7    37    1
    17     8     9    1
    18     8    27   ar
    19     9    10    2
    20     9    11   am
    21    11    12    1
    22    11    38    1
    23    12    13    1
    24    12    17    1
    25    12    14    1
    26    14    15    1
    27    14    39    1
    28    14    40    1
    29    15    16    1
    30    15    41    1
    31    15    42    1
    32    16    17    1
    33    17    18    1
    34    17    19    1
    35    19    26   ar
    36    19    20   ar
    37    20    21   ar
    38    20    43    1
    39    21    22   ar
    40    21    44    1
    41    22    23    1
    42    22    24   ar
    43    24    25    1
    44    24    26   ar
    45    26    45    1
    46    27    28   ar
    47    27    46    1
    48    28    29   ar
    49    28    47    1
@<TRIPOS>SUBSTRUCTURE
     1 ZINC000182378855        1 TEMP              0 ****  ****    0 ROOT


##########                                Name:    ZINC000572148596
##########                DOCK_Rotatable_Bonds:                   4
##########                         Heavy_Atoms:                  26
##########                    Molecular_Weight:             371.463
##########                DOCK_Rotatable_Bonds:                   4
##########                       Formal_Charge:          -0.0199999
##########                     HBond_Acceptors:                   8
##########                        HBond_Donors:                   0
##########                         Heavy_Atoms:                  26
##########                          Grid_Score:          -31.427895
##########                     Grid_vdw_energy:          -31.352362
##########                      Grid_es_energy:           -0.075533
##########           Internal_energy_repulsive:            6.992835

@<TRIPOS>MOLECULE
ZINC000572148596
 47 50 1 0 0
SMALL
USER_CHARGES


@<TRIPOS>ATOM
      1 C1         -4.4324    1.4824   50.1775 C.3     1  ZINC000572148596   -0.1400
      2 C2         -5.9576    1.5654   50.0880 C.3     1  ZINC000572148596    0.0800
      3 H3         -6.2857    1.1902   49.1186 H       1  ZINC000572148596    0.1200
      4 C4         -6.5712    0.7316   51.1832 C.2     1  ZINC000572148596    0.1800
      5 N5         -6.8917   -0.5262   51.1023 N.2     1  ZINC000572148596   -0.3500
      6 O6         -7.3642   -0.9124   52.1504 O.3     1  ZINC000572148596    0.0900
      7 C7         -7.3919    0.0980   53.0336 C.2     1  ZINC000572148596    0.2300
      8 C8         -7.8906    0.0423   54.4219 C.ar    1  ZINC000572148596   -0.1200
      9 C9         -7.5043    1.0146   55.3559 C.ar    1  ZINC000572148596   -0.0100
     10 C10        -7.9912    0.9238   56.6328 C.ar    1  ZINC000572148596   -0.1900
     11 C11        -8.8487   -0.1226   56.9646 C.ar    1  ZINC000572148596    0.3400
     12 N12        -9.3437   -0.2172   58.2560 N.3     1  ZINC000572148596   -0.4700
     13 C13        -8.2501   -0.3135   59.2338 C.3     1  ZINC000572148596    0.0300
     14 C14        -8.8382   -0.3558   60.6467 C.3     1  ZINC000572148596    0.0900
     15 H15        -8.0345   -0.4845   61.3718 H       1  ZINC000572148596    0.1100
     16 C16        -9.5784    0.9526   60.9315 C.3     1  ZINC000572148596   -0.1800
     17 O17        -9.7506   -1.4527   60.7452 O.3     1  ZINC000572148596   -0.3700
     18 C18       -10.8288   -1.3908   59.8077 C.3     1  ZINC000572148596    0.0800
     19 H19       -11.4146   -0.4890   59.9858 H       1  ZINC000572148596    0.0700
     20 C20       -11.7222   -2.6216   59.9745 C.3     1  ZINC000572148596   -0.1400
     21 C21       -10.2608   -1.3589   58.3863 C.3     1  ZINC000572148596    0.0300
     22 N22        -9.1983   -1.0288   56.0623 N.ar    1  ZINC000572148596   -0.5200
     23 C23        -8.7576   -0.9751   54.8224 C.ar    1  ZINC000572148596    0.1900
     24 N24        -6.8800    1.1512   52.4198 N.2     1  ZINC000572148596   -0.4700
     25 C25        -6.3927    2.9996   50.2449 C.2     1  ZINC000572148596    0.0400
     26 N26        -5.7622    3.8918   50.9313 N.2     1  ZINC000572148596   -0.4500
     27 C27        -6.2811    5.1027   50.9638 C.2     1  ZINC000572148596    0.0400
     28 C28        -7.4125    5.2396   50.2657 C.2     1  ZINC000572148596   -0.2500
     29 S29        -7.7894    3.6821   49.5330 S.3     1  ZINC000572148596    0.1400
     30 H30        -4.1044    1.8576   51.1468 H       1  ZINC000572148596    0.0800
     31 H31        -4.1178    0.4451   50.0639 H       1  ZINC000572148596    0.0700
     32 H32        -3.9887    2.0854   49.3853 H       1  ZINC000572148596    0.0800
     33 H33        -6.8378    1.8165   55.0747 H       1  ZINC000572148596    0.1500
     34 H34        -7.7125    1.6565   57.3757 H       1  ZINC000572148596    0.1500
     35 H35        -7.6771   -1.2224   59.0507 H       1  ZINC000572148596    0.0600
     36 H36        -7.5980    0.5546   59.1369 H       1  ZINC000572148596    0.1000
     37 H37       -10.3829    1.0800   60.2070 H       1  ZINC000572148596    0.0700
     38 H38        -9.9969    0.9219   61.9374 H       1  ZINC000572148596    0.0600
     39 H39        -8.8828    1.7882   60.8526 H       1  ZINC000572148596    0.0700
     40 H40       -12.1231   -2.6450   60.9877 H       1  ZINC000572148596    0.0700
     41 H41       -12.5437   -2.5738   59.2597 H       1  ZINC000572148596    0.0700
     42 H42       -11.1362   -3.5230   59.7947 H       1  ZINC000572148596    0.0600
     43 H43       -11.0764   -1.2541   57.6708 H       1  ZINC000572148596    0.1000
     44 H44        -9.7199   -2.2846   58.1897 H       1  ZINC000572148596    0.0600
     45 H45        -9.0621   -1.7297   54.1123 H       1  ZINC000572148596    0.1700
     46 H46        -5.8294    5.9176   51.5099 H       1  ZINC000572148596    0.1800
     47 H47        -7.9915    6.1457   50.1654 H       1  ZINC000572148596    0.1800
@<TRIPOS>BOND
     1     1     2    1
     2     1    30    1
     3     1    31    1
     4     1    32    1
     5     2     3    1
     6     2     4    1
     7     2    25    1
     8     4    24    1
     9     4     5    2
    10     5     6    1
    11     6     7    1
    12     7     8    1
    13     7    24    2
    14     8    23   ar
    15     8     9   ar
    16     9    10   ar
    17     9    33    1
    18    10    11   ar
    19    10    34    1
    20    11    12    1
    21    11    22   ar
    22    12    21    1
    23    12    13    1
    24    13    14    1
    25    13    35    1
    26    13    36    1
    27    14    15    1
    28    14    16    1
    29    14    17    1
    30    16    37    1
    31    16    38    1
    32    16    39    1
    33    17    18    1
    34    18    19    1
    35    18    20    1
    36    18    21    1
    37    20    40    1
    38    20    41    1
    39    20    42    1
    40    21    43    1
    41    21    44    1
    42    22    23   ar
    43    23    45    1
    44    25    29    1
    45    25    26    2
    46    26    27    1
    47    27    28    2
    48    27    46    1
    49    28    29    1
    50    28    47    1
@<TRIPOS>SUBSTRUCTURE
     1 ZINC000572148596        1 TEMP              0 ****  ****    0 ROOT


##########                                Name:    ZINC000460972051
##########                DOCK_Rotatable_Bonds:                  10
##########                         Heavy_Atoms:                  29
##########                    Molecular_Weight:             417.572
##########                DOCK_Rotatable_Bonds:                  10
##########                       Formal_Charge:         3.31551e-07
##########                     HBond_Acceptors:                   7
##########                        HBond_Donors:                   2
##########                         Heavy_Atoms:                  29
##########                          Grid_Score:          -31.419182
##########                     Grid_vdw_energy:          -31.303061
##########                      Grid_es_energy:           -0.116122
##########           Internal_energy_repulsive:           30.003933

@<TRIPOS>MOLECULE
ZINC000460972051
 60 61 1 0 0
SMALL
USER_CHARGES


@<TRIPOS>ATOM
      1 C1         -7.1995    2.3703   54.3735 C.3     1  ZINC000460972051   -0.1800
      2 C2         -7.0729    1.3819   55.5346 C.3     1  ZINC000460972051    0.1000
      3 N3         -8.4088    0.9736   55.9761 N.am    1  ZINC000460972051   -0.6200
      4 C4         -9.1006    0.0567   55.2710 C.2     1  ZINC000460972051    0.7100
      5 O5         -8.6167   -0.4305   54.2676 O.2     1  ZINC000460972051   -0.5800
      6 N6        -10.3289   -0.3201   55.6782 N.am    1  ZINC000460972051   -0.7400
      7 C7        -11.0803   -1.3180   54.9128 C.3     1  ZINC000460972051    0.2000
      8 H8        -10.3875   -1.9295   54.3346 H       1  ZINC000460972051    0.1100
      9 C9        -11.8685   -2.2104   55.8737 C.3     1  ZINC000460972051    0.1100
     10 N10       -10.9467   -3.1099   56.5719 N.am    1  ZINC000460972051   -1.1200
     11 S11       -11.5368   -4.2581   57.6090 S.o2    1  ZINC000460972051    2.7000
     12 O12       -12.5034   -5.0002   56.8782 O.2     1  ZINC000460972051   -0.9500
     13 O13       -10.4075   -4.8545   58.2320 O.2     1  ZINC000460972051   -0.9600
     14 C14       -12.4162   -3.4110   58.8794 C.ar    1  ZINC000460972051   -0.6900
     15 C15       -13.7898   -3.5340   58.9692 C.ar    1  ZINC000460972051   -0.0100
     16 C16       -14.4797   -2.8693   59.9660 C.ar    1  ZINC000460972051   -0.1500
     17 C17       -13.7957   -2.0821   60.8730 C.ar    1  ZINC000460972051   -0.0200
     18 C18       -14.5478   -1.3571   61.9592 C.3     1  ZINC000460972051   -0.1300
     19 C19       -12.4214   -1.9600   60.7840 C.ar    1  ZINC000460972051   -0.1500
     20 C20       -11.7313   -2.6276   59.7898 C.ar    1  ZINC000460972051    0.0300
     21 C21       -10.2333   -2.4946   59.6928 C.3     1  ZINC000460972051   -0.1700
     22 C22       -12.0346   -0.6201   53.9782 C.ar    1  ZINC000460972051   -0.1000
     23 C23       -11.6259   -0.2763   52.7032 C.ar    1  ZINC000460972051   -0.1000
     24 C24       -12.5012    0.3638   51.8459 C.ar    1  ZINC000460972051   -0.1200
     25 C25       -13.7853    0.6597   52.2634 C.ar    1  ZINC000460972051   -0.1200
     26 C26       -14.1943    0.3151   53.5381 C.ar    1  ZINC000460972051   -0.1200
     27 C27       -13.3203   -0.3289   54.3940 C.ar    1  ZINC000460972051   -0.1000
     28 C28        -8.9926    1.5619   57.1841 C.3     1  ZINC000460972051    0.1500
     29 C29        -8.2600    1.0282   58.4167 C.3     1  ZINC000460972051   -0.1600
     30 C30        -8.8540    3.0846   57.1281 C.3     1  ZINC000460972051   -0.1600
     31 H31        -6.2056    2.6740   54.0450 H       1  ZINC000460972051    0.0700
     32 H32        -7.7257    1.8936   53.5464 H       1  ZINC000460972051    0.0600
     33 H33        -7.7574    3.2471   54.7021 H       1  ZINC000460972051    0.0700
     34 H34        -6.5149    0.5049   55.2061 H       1  ZINC000460972051    0.0700
     35 H35        -6.5466    1.8585   56.3617 H       1  ZINC000460972051    0.0900
     36 H36       -10.7155    0.0695   56.4780 H       1  ZINC000460972051    0.4000
     37 H37       -12.3904   -1.5888   56.6012 H       1  ZINC000460972051    0.0900
     38 H38       -12.5937   -2.7983   55.3112 H       1  ZINC000460972051    0.0900
     39 H39        -9.9907   -3.0330   56.4266 H       1  ZINC000460972051    0.4200
     40 H40       -14.3243   -4.1491   58.2604 H       1  ZINC000460972051    0.1400
     41 H41       -15.5532   -2.9649   60.0357 H       1  ZINC000460972051    0.1300
     42 H42       -14.6165   -1.9944   62.8409 H       1  ZINC000460972051    0.0800
     43 H43       -14.0203   -0.4383   62.2152 H       1  ZINC000460972051    0.0700
     44 H44       -15.5503   -1.1145   61.6072 H       1  ZINC000460972051    0.0700
     45 H45       -11.8869   -1.3453   61.4929 H       1  ZINC000460972051    0.1300
     46 H46        -9.7603   -3.3347   60.2013 H       1  ZINC000460972051    0.0900
     47 H47        -9.9360   -2.4905   58.6442 H       1  ZINC000460972051    0.1000
     48 H48        -9.9201   -1.5624   60.1630 H       1  ZINC000460972051    0.0900
     49 H49       -10.6227   -0.5075   52.3769 H       1  ZINC000460972051    0.1200
     50 H50       -12.1816    0.6331   50.8500 H       1  ZINC000460972051    0.1200
     51 H51       -14.4690    1.1605   51.5939 H       1  ZINC000460972051    0.1200
     52 H52       -15.1974    0.5466   53.8645 H       1  ZINC000460972051    0.1200
     53 H53       -13.6398   -0.5981   55.3898 H       1  ZINC000460972051    0.1200
     54 H54       -10.0477    1.2951   57.2447 H       1  ZINC000460972051    0.1000
     55 H55        -8.3587   -0.0566   58.4567 H       1  ZINC000460972051    0.0600
     56 H56        -7.2049    1.2949   58.3561 H       1  ZINC000460972051    0.0600
     57 H57        -8.6943    1.4660   59.3155 H       1  ZINC000460972051    0.0700
     58 H58        -9.3758    3.4649   56.2500 H       1  ZINC000460972051    0.0600
     59 H59        -9.2884    3.5224   58.0268 H       1  ZINC000460972051    0.0700
     60 H60        -7.7989    3.3514   57.0675 H       1  ZINC000460972051    0.0600
@<TRIPOS>BOND
     1     1     2    1
     2     1    31    1
     3     1    32    1
     4     1    33    1
     5     2     3    1
     6     2    34    1
     7     2    35    1
     8     3     4   am
     9     3    28    1
    10     4     5    2
    11     4     6   am
    12     6     7    1
    13     6    36    1
    14     7     8    1
    15     7     9    1
    16     7    22    1
    17     9    10    1
    18     9    37    1
    19     9    38    1
    20    10    11   am
    21    10    39    1
    22    11    12    2
    23    11    13    2
    24    11    14    1
    25    14    20   ar
    26    14    15   ar
    27    15    16   ar
    28    15    40    1
    29    16    17   ar
    30    16    41    1
    31    17    18    1
    32    17    19   ar
    33    18    42    1
    34    18    43    1
    35    18    44    1
    36    19    20   ar
    37    19    45    1
    38    20    21    1
    39    21    46    1
    40    21    47    1
    41    21    48    1
    42    22    27   ar
    43    22    23   ar
    44    23    24   ar
    45    23    49    1
    46    24    25   ar
    47    24    50    1
    48    25    26   ar
    49    25    51    1
    50    26    27   ar
    51    26    52    1
    52    27    53    1
    53    28    29    1
    54    28    30    1
    55    28    54    1
    56    29    55    1
    57    29    56    1
    58    29    57    1
    59    30    58    1
    60    30    59    1
    61    30    60    1
@<TRIPOS>SUBSTRUCTURE
     1 ZINC000460972051        1 TEMP              0 ****  ****    0 ROOT


##########                                Name:    ZINC000771225867
##########                DOCK_Rotatable_Bonds:                   9
##########                         Heavy_Atoms:                  23
##########                    Molecular_Weight:             355.802
##########                DOCK_Rotatable_Bonds:                   9
##########                       Formal_Charge:        -3.12924e-07
##########                     HBond_Acceptors:                   9
##########                        HBond_Donors:                   3
##########                         Heavy_Atoms:                  23
##########                          Grid_Score:          -31.414061
##########                     Grid_vdw_energy:          -30.212090
##########                      Grid_es_energy:           -1.201971
##########           Internal_energy_repulsive:            6.514782

@<TRIPOS>MOLECULE
ZINC000771225867
 37 38 1 0 0
SMALL
USER_CHARGES


@<TRIPOS>ATOM
      1 C1          1.8345    0.4409   44.4905 C.3     1  ZINC000771225867    0.0400
      2 O2          0.8522    0.2913   43.4634 O.3     1  ZINC000771225867   -0.3600
      3 C3         -0.4189    0.0683   43.8589 C.2     1  ZINC000771225867    0.5500
      4 O4         -1.2433   -0.3340   43.0592 O.2     1  ZINC000771225867   -0.4900
      5 C5         -0.7929    0.3026   45.2037 C.2     1  ZINC000771225867   -0.3400
      6 C6         -0.9730    1.5281   45.7902 C.2     1  ZINC000771225867    0.2700
      7 Cl7        -0.7613    3.0253   44.9377 Cl      1  ZINC000771225867    0.0400
      8 N8         -1.3195    1.4678   47.0512 N.2     1  ZINC000771225867   -0.5500
      9 C9         -1.4471    0.2840   47.5793 C.2     1  ZINC000771225867    0.3400
     10 N10        -1.8047    0.0431   48.8880 N.pl3   1  ZINC000771225867   -0.6700
     11 C11        -1.5553    1.0583   49.9143 C.3     1  ZINC000771225867    0.1700
     12 C12        -2.7684    1.9418   50.0520 C.ar    1  ZINC000771225867   -0.0800
     13 C13        -2.6714    3.2947   49.7845 C.ar    1  ZINC000771225867   -0.1300
     14 C14        -3.7826    4.1081   49.9100 C.ar    1  ZINC000771225867   -0.0800
     15 C15        -4.9927    3.5705   50.3031 C.ar    1  ZINC000771225867   -0.2000
     16 C16        -5.0927    2.2129   50.5720 C.ar    1  ZINC000771225867    0.1300
     17 O17        -6.2823    1.6815   50.9585 O.3     1  ZINC000771225867   -0.2900
     18 C18        -6.3362    1.0879   52.2572 C.3     1  ZINC000771225867    0.0400
     19 C19        -7.1606   -0.1724   52.1997 C.2     1  ZINC000771225867    0.5200
     20 N20        -8.4145   -0.1356   51.7068 N.am    1  ZINC000771225867   -0.8500
     21 O21        -6.6956   -1.2197   52.5969 O.2     1  ZINC000771225867   -0.5200
     22 C22        -3.9779    1.3981   50.4401 C.ar    1  ZINC000771225867   -0.1200
     23 S23        -1.1176   -0.9288   46.4211 S.3     1  ZINC000771225867    0.2200
     24 H24         1.5719    1.2883   45.1238 H       1  ZINC000771225867    0.0600
     25 H25         1.8703   -0.4662   45.0939 H       1  ZINC000771225867    0.0600
     26 H26         2.8105    0.6146   44.0373 H       1  ZINC000771225867    0.1000
     27 H27        -2.2215   -0.7988   49.1297 H       1  ZINC000771225867    0.4200
     28 H28        -1.3518    0.5694   50.8671 H       1  ZINC000771225867    0.0900
     29 H29        -0.6960    1.6634   49.6256 H       1  ZINC000771225867    0.0900
     30 H30        -1.7260    3.7170   49.4775 H       1  ZINC000771225867    0.1300
     31 H31        -3.7042    5.1647   49.7007 H       1  ZINC000771225867    0.1300
     32 H32        -5.8602    4.2063   50.4012 H       1  ZINC000771225867    0.1300
     33 H33        -5.3264    0.8466   52.5887 H       1  ZINC000771225867    0.1000
     34 H34        -6.7913    1.7879   52.9581 H       1  ZINC000771225867    0.1000
     35 H35        -8.9447   -0.9470   51.6687 H       1  ZINC000771225867    0.4000
     36 H36        -8.7867    0.7023   51.3902 H       1  ZINC000771225867    0.4100
     37 H37        -4.0531    0.3412   50.6489 H       1  ZINC000771225867    0.1400
@<TRIPOS>BOND
     1     1     2    1
     2     1    24    1
     3     1    25    1
     4     1    26    1
     5     2     3    1
     6     3     4    2
     7     3     5    1
     8     5    23    1
     9     5     6    2
    10     6     7    1
    11     6     8    1
    12     8     9    2
    13     9    10    1
    14     9    23    1
    15    10    11    1
    16    10    27    1
    17    11    12    1
    18    11    28    1
    19    11    29    1
    20    12    22   ar
    21    12    13   ar
    22    13    14   ar
    23    13    30    1
    24    14    15   ar
    25    14    31    1
    26    15    16   ar
    27    15    32    1
    28    16    17    1
    29    16    22   ar
    30    17    18    1
    31    18    19    1
    32    18    33    1
    33    18    34    1
    34    19    20   am
    35    19    21    2
    36    20    35    1
    37    20    36    1
    38    22    37    1
@<TRIPOS>SUBSTRUCTURE
     1 ZINC000771225867        1 TEMP              0 ****  ****    0 ROOT


##########                                Name:    ZINC000821442454
##########                DOCK_Rotatable_Bonds:                   6
##########                         Heavy_Atoms:                  26
##########                    Molecular_Weight:             398.873
##########                DOCK_Rotatable_Bonds:                   6
##########                       Formal_Charge:          -0.0399996
##########                     HBond_Acceptors:                  11
##########                        HBond_Donors:                   2
##########                         Heavy_Atoms:                  26
##########                          Grid_Score:          -31.382227
##########                     Grid_vdw_energy:          -30.850500
##########                      Grid_es_energy:           -0.531727
##########           Internal_energy_repulsive:           12.898488

@<TRIPOS>MOLECULE
ZINC000821442454
 45 47 1 0 0
SMALL
USER_CHARGES


@<TRIPOS>ATOM
      1 C1         -1.7607    0.6099   49.8105 C.3     1  ZINC000821442454   -0.1500
      2 C2         -3.2223    0.8345   50.2034 C.3     1  ZINC000821442454   -0.6300
      3 S3         -3.8136    2.3856   49.4718 S.o2    1  ZINC000821442454    2.6000
      4 O4         -3.1914    3.5002   50.0958 O.2     1  ZINC000821442454   -0.9500
      5 O5         -3.8742    2.2779   48.0561 O.2     1  ZINC000821442454   -0.9500
      6 N6         -5.3983    2.4864   49.9419 N.am    1  ZINC000821442454   -1.0000
      7 C7         -6.2284    3.6285   49.5353 C.3     1  ZINC000821442454    0.1100
      8 C8         -6.8544    4.2531   50.7863 C.3     1  ZINC000821442454   -0.1300
      9 C9         -7.6083    3.1745   51.5674 C.3     1  ZINC000821442454   -0.1100
     10 C10        -6.6295    2.0845   52.0099 C.3     1  ZINC000821442454   -0.1200
     11 H11        -5.8465    2.5269   52.6260 H       1  ZINC000821442454    0.1100
     12 C12        -7.3668    1.0397   52.8073 C.2     1  ZINC000821442454    0.5300
     13 O13        -7.0771   -0.1318   52.6863 O.2     1  ZINC000821442454   -0.5100
     14 N14        -8.3482    1.4071   53.6548 N.am    1  ZINC000821442454   -0.6700
     15 C15        -9.0326    0.4375   54.3949 C.ar    1  ZINC000821442454    0.1800
     16 C16       -10.0826   -0.2639   53.8160 C.ar    1  ZINC000821442454   -0.1200
     17 C17       -10.7586   -1.2209   54.5435 C.ar    1  ZINC000821442454   -0.0500
     18 C18       -10.3881   -1.4845   55.8606 C.ar    1  ZINC000821442454   -0.0300
     19 C19       -11.1142   -2.5143   56.6448 C.2     1  ZINC000821442454    0.2200
     20 N20       -10.8741   -2.8690   57.8916 N.2     1  ZINC000821442454   -0.2900
     21 N21       -11.7174   -3.7904   58.2088 N.pl3   1  ZINC000821442454   -0.2200
     22 N22       -12.4840   -4.0307   57.2030 N.2     1  ZINC000821442454   -0.0400
     23 N23       -12.1457   -3.2607   56.2251 N.2     1  ZINC000821442454   -0.2700
     24 C24        -9.3343   -0.7802   56.4405 C.ar    1  ZINC000821442454   -0.0500
     25 C25        -8.6572    0.1726   55.7077 C.ar    1  ZINC000821442454   -0.0800
     26 Cl26       -7.3446    1.0506   56.4289 Cl      1  ZINC000821442454   -0.0500
     27 C27        -6.0026    1.4325   50.7682 C.3     1  ZINC000821442454    0.1400
     28 H28        -1.6809    0.5533   48.7249 H       1  ZINC000821442454    0.0700
     29 H29        -1.1547    1.4387   50.1766 H       1  ZINC000821442454    0.0700
     30 H30        -1.4054   -0.3221   50.2501 H       1  ZINC000821442454    0.0800
     31 H31        -3.8283    0.0058   49.8373 H       1  ZINC000821442454    0.1300
     32 H32        -3.3021    0.8912   51.2890 H       1  ZINC000821442454    0.1300
     33 H33        -5.6090    4.3684   49.0283 H       1  ZINC000821442454    0.1000
     34 H34        -7.0164    3.2870   48.8641 H       1  ZINC000821442454    0.0700
     35 H35        -6.0693    4.6750   51.4139 H       1  ZINC000821442454    0.0700
     36 H36        -7.5479    5.0407   50.4915 H       1  ZINC000821442454    0.0800
     37 H37        -8.0753    3.6213   52.4451 H       1  ZINC000821442454    0.0700
     38 H38        -8.3769    2.7358   50.9312 H       1  ZINC000821442454    0.0800
     39 H39        -8.5799    2.3441   53.7516 H       1  ZINC000821442454    0.4200
     40 H40       -10.3701   -0.0594   52.7951 H       1  ZINC000821442454    0.1600
     41 H41       -11.5750   -1.7655   54.0928 H       1  ZINC000821442454    0.1500
     42 H42       -11.7665   -4.2336   59.0703 H       1  ZINC000821442454    0.4800
     43 H43        -9.0456   -0.9829   57.4612 H       1  ZINC000821442454    0.1500
     44 H44        -6.7736    0.9122   50.2000 H       1  ZINC000821442454    0.0800
     45 H45        -5.2328    0.7250   51.0763 H       1  ZINC000821442454    0.1000
@<TRIPOS>BOND
     1     1     2    1
     2     1    28    1
     3     1    29    1
     4     1    30    1
     5     2     3    1
     6     2    31    1
     7     2    32    1
     8     3     4    2
     9     3     5    2
    10     3     6   am
    11     6    27    1
    12     6     7    1
    13     7     8    1
    14     7    33    1
    15     7    34    1
    16     8     9    1
    17     8    35    1
    18     8    36    1
    19     9    10    1
    20     9    37    1
    21     9    38    1
    22    10    11    1
    23    10    12    1
    24    10    27    1
    25    12    13    2
    26    12    14   am
    27    14    15    1
    28    14    39    1
    29    15    25   ar
    30    15    16   ar
    31    16    17   ar
    32    16    40    1
    33    17    18   ar
    34    17    41    1
    35    18    19    1
    36    18    24   ar
    37    19    23    1
    38    19    20    2
    39    20    21    1
    40    21    22    1
    41    21    42    1
    42    22    23    2
    43    24    25   ar
    44    24    43    1
    45    25    26    1
    46    27    44    1
    47    27    45    1
@<TRIPOS>SUBSTRUCTURE
     1 ZINC000821442454        1 TEMP              0 ****  ****    0 ROOT


##########                                Name:    ZINC000532153088
##########                DOCK_Rotatable_Bonds:                  11
##########                         Heavy_Atoms:                  29
##########                    Molecular_Weight:             402.484
##########                DOCK_Rotatable_Bonds:                  11
##########                       Formal_Charge:          -0.0200009
##########                     HBond_Acceptors:                   6
##########                        HBond_Donors:                   1
##########                         Heavy_Atoms:                  29
##########                          Grid_Score:          -31.370338
##########                     Grid_vdw_energy:          -29.815308
##########                      Grid_es_energy:           -1.555031
##########           Internal_energy_repulsive:           18.674465

@<TRIPOS>MOLECULE
ZINC000532153088
 57 59 1 0 0
SMALL
USER_CHARGES


@<TRIPOS>ATOM
      1 C1         -5.3400    3.0348   51.7823 C.3     1  ZINC000532153088   -0.1800
      2 C2         -5.5304    2.4129   53.1672 C.3     1  ZINC000532153088    0.0800
      3 C3         -5.5635    3.5196   54.2231 C.3     1  ZINC000532153088   -0.1500
      4 O4         -6.7612    1.6875   53.1986 O.3     1  ZINC000532153088   -0.3800
      5 C5         -7.0359    1.0630   54.4543 C.3     1  ZINC000532153088    0.1000
      6 C6         -8.3504    0.3304   54.3739 C.ar    1  ZINC000532153088   -0.0700
      7 C7         -8.8007   -0.1499   53.1587 C.ar    1  ZINC000532153088   -0.1000
      8 C8        -10.0067   -0.8220   53.0851 C.ar    1  ZINC000532153088   -0.1100
      9 C9        -10.7617   -1.0140   54.2268 C.ar    1  ZINC000532153088   -0.1200
     10 C10       -10.3108   -0.5344   55.4426 C.ar    1  ZINC000532153088   -0.1000
     11 C11        -9.1032    0.1338   55.5169 C.ar    1  ZINC000532153088   -0.1100
     12 C12        -8.6115    0.6566   56.8421 C.3     1  ZINC000532153088    0.1600
     13 N13        -9.1481   -0.1731   57.9238 N.am    1  ZINC000532153088   -0.7300
     14 C14        -8.4706   -0.2898   59.0830 C.2     1  ZINC000532153088    0.5100
     15 O15        -7.4161    0.2909   59.2301 O.2     1  ZINC000532153088   -0.5000
     16 C16        -9.0234   -1.1418   60.1964 C.3     1  ZINC000532153088    0.0300
     17 N17       -10.4907   -1.0709   60.1848 N.3     1  ZINC000532153088   -0.4800
     18 C18       -11.0818   -2.3100   60.7073 C.3     1  ZINC000532153088    0.1000
     19 C19       -11.8512   -3.0007   59.6110 C.ar    1  ZINC000532153088   -0.1300
     20 C20       -11.1979   -3.4219   58.4685 C.ar    1  ZINC000532153088   -0.0600
     21 C21       -11.9022   -4.0560   57.4622 C.ar    1  ZINC000532153088   -0.1700
     22 C22       -13.2633   -4.2700   57.5982 C.ar    1  ZINC000532153088    0.1300
     23 F23       -13.9514   -4.8903   56.6147 F       1  ZINC000532153088   -0.1300
     24 C24       -13.9188   -3.8486   58.7423 C.ar    1  ZINC000532153088   -0.2000
     25 C25       -13.2117   -3.2185   59.7514 C.ar    1  ZINC000532153088    0.1600
     26 F26       -13.8501   -2.8067   60.8686 F       1  ZINC000532153088   -0.1100
     27 C27       -10.9672    0.0976   60.9369 C.3     1  ZINC000532153088    0.0200
     28 C28       -11.3661    1.3386   60.1358 C.3     1  ZINC000532153088   -0.2200
     29 C29       -12.4432    0.4750   60.7952 C.3     1  ZINC000532153088   -0.1700
     30 H30        -4.4013    3.5881   51.7584 H       1  ZINC000532153088    0.0700
     31 H31        -5.3165    2.2463   51.0301 H       1  ZINC000532153088    0.0600
     32 H32        -6.1670    3.7131   51.5719 H       1  ZINC000532153088    0.0700
     33 H33        -4.7034    1.7346   53.3777 H       1  ZINC000532153088    0.0600
     34 H34        -6.3906    4.1979   54.0127 H       1  ZINC000532153088    0.0600
     35 H35        -5.6991    3.0765   55.2097 H       1  ZINC000532153088    0.0600
     36 H36        -4.6248    4.0729   54.1991 H       1  ZINC000532153088    0.0700
     37 H37        -6.2401    0.3567   54.6906 H       1  ZINC000532153088    0.0600
     38 H38        -7.0905    1.8229   55.2338 H       1  ZINC000532153088    0.0600
     39 H39        -8.2108    0.0002   52.2667 H       1  ZINC000532153088    0.1300
     40 H40       -10.3590   -1.1967   52.1354 H       1  ZINC000532153088    0.1200
     41 H41       -11.7041   -1.5385   54.1692 H       1  ZINC000532153088    0.1300
     42 H42       -10.9008   -0.6841   56.3346 H       1  ZINC000532153088    0.1300
     43 H43        -7.5223    0.6228   56.8644 H       1  ZINC000532153088    0.0800
     44 H44        -8.9460    1.6856   56.9735 H       1  ZINC000532153088    0.0800
     45 H45        -9.9910   -0.6384   57.8056 H       1  ZINC000532153088    0.4000
     46 H46        -8.7085   -2.1755   60.0535 H       1  ZINC000532153088    0.0700
     47 H47        -8.6496   -0.7769   61.1530 H       1  ZINC000532153088    0.1100
     48 H48       -10.2896   -2.9677   61.0651 H       1  ZINC000532153088    0.0900
     49 H49       -11.7560   -2.0722   61.5302 H       1  ZINC000532153088    0.0500
     50 H50       -10.1362   -3.2550   58.3614 H       1  ZINC000532153088    0.1400
     51 H51       -11.3907   -4.3844   56.5695 H       1  ZINC000532153088    0.1400
     52 H52       -14.9806   -4.0151   58.8493 H       1  ZINC000532153088    0.1500
     53 H53       -10.4987    0.2544   61.9084 H       1  ZINC000532153088    0.1200
     54 H54       -11.1598    2.3123   60.5803 H       1  ZINC000532153088    0.1000
     55 H55       -11.2748    1.2881   59.0508 H       1  ZINC000532153088    0.1000
     56 H56       -13.0606   -0.1437   60.1439 H       1  ZINC000532153088    0.1000
     57 H57       -12.9456    0.8805   61.6735 H       1  ZINC000532153088    0.1000
@<TRIPOS>BOND
     1     1     2    1
     2     1    30    1
     3     1    31    1
     4     1    32    1
     5     2     3    1
     6     2     4    1
     7     2    33    1
     8     3    34    1
     9     3    35    1
    10     3    36    1
    11     4     5    1
    12     5     6    1
    13     5    37    1
    14     5    38    1
    15     6    11   ar
    16     6     7   ar
    17     7     8   ar
    18     7    39    1
    19     8     9   ar
    20     8    40    1
    21     9    10   ar
    22     9    41    1
    23    10    11   ar
    24    10    42    1
    25    11    12    1
    26    12    13    1
    27    12    43    1
    28    12    44    1
    29    13    14   am
    30    13    45    1
    31    14    15    2
    32    14    16    1
    33    16    17    1
    34    16    46    1
    35    16    47    1
    36    17    18    1
    37    17    27    1
    38    18    19    1
    39    18    48    1
    40    18    49    1
    41    19    25   ar
    42    19    20   ar
    43    20    21   ar
    44    20    50    1
    45    21    22   ar
    46    21    51    1
    47    22    23    1
    48    22    24   ar
    49    24    25   ar
    50    24    52    1
    51    25    26    1
    52    27    29    1
    53    27    28    1
    54    27    53    1
    55    28    29    1
    56    28    54    1
    57    28    55    1
    58    29    56    1
    59    29    57    1
@<TRIPOS>SUBSTRUCTURE
     1 ZINC000532153088        1 TEMP              0 ****  ****    0 ROOT


##########                                Name:    ZINC000271662144
##########                DOCK_Rotatable_Bonds:                   8
##########                         Heavy_Atoms:                  26
##########                    Molecular_Weight:             390.402
##########                DOCK_Rotatable_Bonds:                   8
##########                       Formal_Charge:          0.00999944
##########                     HBond_Acceptors:                   9
##########                        HBond_Donors:                   3
##########                         Heavy_Atoms:                  26
##########                          Grid_Score:          -31.368292
##########                     Grid_vdw_energy:          -29.976290
##########                      Grid_es_energy:           -1.392002
##########           Internal_energy_repulsive:           11.597018

@<TRIPOS>MOLECULE
ZINC000271662144
 44 45 1 0 0
SMALL
USER_CHARGES


@<TRIPOS>ATOM
      1 C1         -0.7656    1.5017   49.8622 C.3     1  ZINC000271662144   -0.1400
      2 C2         -1.9530    1.3747   48.9057 C.3     1  ZINC000271662144    0.1200
      3 H3         -2.1339    0.3220   48.6890 H       1  ZINC000271662144    0.0600
      4 N4         -1.6540    2.0876   47.6566 N.3     1  ZINC000271662144   -0.6700
      5 C5         -1.0281    1.1909   46.6756 C.3     1  ZINC000271662144    0.1300
      6 H6         -1.1688    0.1560   46.9878 H       1  ZINC000271662144    0.1100
      7 C7         -1.6750    1.4027   45.3055 C.3     1  ZINC000271662144   -0.2000
      8 C8         -1.3387    0.2205   44.3944 C.3     1  ZINC000271662144    0.4600
      9 F9          0.0117    0.2792   44.0336 F       1  ZINC000271662144   -0.1800
     10 F10        -1.5885   -0.9771   45.0730 F       1  ZINC000271662144   -0.1800
     11 F11        -2.1318    0.2785   43.2433 F       1  ZINC000271662144   -0.1700
     12 C12         0.4456    1.4931   46.5875 C.ar    1  ZINC000271662144   -0.0900
     13 C13         1.3663    0.4634   46.6416 C.ar    1  ZINC000271662144   -0.0600
     14 C14         2.7180    0.7393   46.5609 C.ar    1  ZINC000271662144   -0.1600
     15 C15         3.1500    2.0478   46.4253 C.ar    1  ZINC000271662144    0.1000
     16 F16         4.4712    2.3187   46.3459 F       1  ZINC000271662144   -0.1400
     17 C17         2.2269    3.0783   46.3707 C.ar    1  ZINC000271662144   -0.1500
     18 C18         0.8755    2.7995   46.4468 C.ar    1  ZINC000271662144   -0.0700
     19 C19        -3.1792    1.9740   49.5449 C.ar    1  ZINC000271662144   -0.1100
     20 C20        -3.3244    3.3469   49.6083 C.ar    1  ZINC000271662144   -0.0400
     21 C21        -4.4493    3.8967   50.1947 C.ar    1  ZINC000271662144   -0.1400
     22 C22        -5.4288    3.0733   50.7171 C.ar    1  ZINC000271662144   -0.0200
     23 C23        -5.2840    1.6998   50.6529 C.ar    1  ZINC000271662144   -0.6800
     24 S24        -6.5324    0.6501   51.3194 S.o2    1  ZINC000271662144    2.7000
     25 N25        -6.2039    0.4603   52.9314 N.am    1  ZINC000271662144   -1.2500
     26 O26        -7.7512    1.3763   51.2410 O.2     1  ZINC000271662144   -0.9600
     27 O27        -6.3471   -0.6246   50.7194 O.2     1  ZINC000271662144   -0.9600
     28 C28        -4.1614    1.1502   50.0629 C.ar    1  ZINC000271662144   -0.0100
     29 H29         0.1213    1.0683   49.3998 H       1  ZINC000271662144    0.0600
     30 H30        -0.5846    2.5546   50.0790 H       1  ZINC000271662144    0.0700
     31 H31        -0.9874    0.9728   50.7891 H       1  ZINC000271662144    0.0600
     32 H32        -2.4851    2.5155   47.2767 H       1  ZINC000271662144    0.3500
     33 H33        -2.7564    1.4758   45.4215 H       1  ZINC000271662144    0.1100
     34 H34        -1.2942    2.3228   44.8621 H       1  ZINC000271662144    0.1200
     35 H35         1.0291   -0.5572   46.7473 H       1  ZINC000271662144    0.1300
     36 H36         3.4372   -0.0652   46.6040 H       1  ZINC000271662144    0.1400
     37 H37         2.5627    4.0994   46.2653 H       1  ZINC000271662144    0.1400
     38 H38         0.1553    3.6032   46.4039 H       1  ZINC000271662144    0.1300
     39 H39        -2.5591    3.9904   49.2002 H       1  ZINC000271662144    0.1400
     40 H40        -4.5626    4.9696   50.2449 H       1  ZINC000271662144    0.1400
     41 H41        -6.3072    3.5028   51.1759 H       1  ZINC000271662144    0.1400
     42 H42        -6.7825   -0.0894   53.4827 H       1  ZINC000271662144    0.4200
     43 H43        -5.4331    0.8988   53.3242 H       1  ZINC000271662144    0.4200
     44 H44        -4.0481    0.0774   50.0126 H       1  ZINC000271662144    0.1400
@<TRIPOS>BOND
     1     1     2    1
     2     1    29    1
     3     1    30    1
     4     1    31    1
     5     2     3    1
     6     2     4    1
     7     2    19    1
     8     4     5    1
     9     4    32    1
    10     5     6    1
    11     5     7    1
    12     5    12    1
    13     7     8    1
    14     7    33    1
    15     7    34    1
    16     8     9    1
    17     8    10    1
    18     8    11    1
    19    12    18   ar
    20    12    13   ar
    21    13    14   ar
    22    13    35    1
    23    14    15   ar
    24    14    36    1
    25    15    16    1
    26    15    17   ar
    27    17    18   ar
    28    17    37    1
    29    18    38    1
    30    19    28   ar
    31    19    20   ar
    32    20    21   ar
    33    20    39    1
    34    21    22   ar
    35    21    40    1
    36    22    23   ar
    37    22    41    1
    38    23    24    1
    39    23    28   ar
    40    24    25   am
    41    24    26    2
    42    24    27    2
    43    25    42    1
    44    25    43    1
    45    28    44    1
@<TRIPOS>SUBSTRUCTURE
     1 ZINC000271662144        1 TEMP              0 ****  ****    0 ROOT


##########                                Name:    ZINC000459459628
##########                DOCK_Rotatable_Bonds:                   8
##########                         Heavy_Atoms:                  27
##########                    Molecular_Weight:             377.366
##########                DOCK_Rotatable_Bonds:                   8
##########                       Formal_Charge:         -0.00999984
##########                     HBond_Acceptors:                   8
##########                        HBond_Donors:                   1
##########                         Heavy_Atoms:                  27
##########                          Grid_Score:          -31.366402
##########                     Grid_vdw_energy:          -30.054199
##########                      Grid_es_energy:           -1.312202
##########           Internal_energy_repulsive:           21.381983

@<TRIPOS>MOLECULE
ZINC000459459628
 45 46 1 0 0
SMALL
USER_CHARGES


@<TRIPOS>ATOM
      1 C1         -6.8516    3.5059   49.5728 C.3     1  ZINC000459459628   -0.1600
      2 C2         -5.7480    2.8327   50.3912 C.3     1  ZINC000459459628    0.1600
      3 H3         -5.7885    1.7542   50.2379 H       1  ZINC000459459628    0.1100
      4 C4         -5.9511    3.1448   51.8753 C.3     1  ZINC000459459628   -0.0900
      5 C5         -6.7069    2.0157   52.5272 C.ar    1  ZINC000459459628   -0.0500
      6 C6         -7.5117    1.1913   51.7634 C.ar    1  ZINC000459459628   -0.1200
      7 C7         -8.2057    0.1550   52.3602 C.ar    1  ZINC000459459628   -0.0900
      8 C8         -8.0954   -0.0577   53.7210 C.ar    1  ZINC000459459628   -0.1600
      9 C9         -7.2890    0.7671   54.4871 C.ar    1  ZINC000459459628    0.1000
     10 F10        -7.1804    0.5601   55.8177 F       1  ZINC000459459628   -0.1400
     11 C11        -6.5904    1.8012   53.8877 C.ar    1  ZINC000459459628   -0.1500
     12 N12        -4.4425    3.3385   49.9600 N.am    1  ZINC000459459628   -0.6200
     13 C13        -3.9975    4.6696   50.3802 C.3     1  ZINC000459459628    0.0700
     14 C14        -3.6510    2.5795   49.1766 C.2     1  ZINC000459459628    0.7100
     15 O15        -4.0197    1.4742   48.8290 O.2     1  ZINC000459459628   -0.5700
     16 N16        -2.4506    3.0456   48.7786 N.am    1  ZINC000459459628   -0.6800
     17 C17        -1.6273    2.2560   47.9637 C.ar    1  ZINC000459459628    0.1500
     18 C18        -2.0795    1.8318   46.7278 C.ar    1  ZINC000459459628   -0.0400
     19 C19        -1.2553    1.0452   45.9184 C.ar    1  ZINC000459459628   -0.0300
     20 C20        -1.7184    0.6035   44.6373 C.1     1  ZINC000459459628    0.2600
     21 N21        -2.0856    0.2531   43.6211 N.1     1  ZINC000459459628   -0.4100
     22 C22         0.0214    0.6911   46.3615 C.ar    1  ZINC000459459628   -0.0500
     23 C23         0.4662    1.1168   47.5951 C.ar    1  ZINC000459459628   -0.1700
     24 C24        -0.3488    1.9026   48.3972 C.ar    1  ZINC000459459628    0.1100
     25 O25         0.0944    2.3194   49.6116 O.3     1  ZINC000459459628   -0.3200
     26 C26         0.1734    1.3364   50.6458 C.3     1  ZINC000459459628    0.4100
     27 F27         0.4374    1.9650   51.8674 F       1  ZINC000459459628   -0.1900
     28 F28        -1.0418    0.6481   50.7286 F       1  ZINC000459459628   -0.1900
     29 H29        -6.8111    4.5844   49.7262 H       1  ZINC000459459628    0.0600
     30 H30        -6.7069    3.2837   48.5156 H       1  ZINC000459459628    0.0600
     31 H31        -7.8229    3.1296   49.8937 H       1  ZINC000459459628    0.0700
     32 H32        -4.9808    3.2593   52.3585 H       1  ZINC000459459628    0.0800
     33 H33        -6.5194    4.0692   51.9776 H       1  ZINC000459459628    0.0900
     34 H34        -7.5987    1.3571   50.6998 H       1  ZINC000459459628    0.1300
     35 H35        -8.8345   -0.4882   51.7625 H       1  ZINC000459459628    0.1300
     36 H36        -8.6382   -0.8669   54.1870 H       1  ZINC000459459628    0.1300
     37 H37        -5.9610    2.4449   54.4841 H       1  ZINC000459459628    0.1300
     38 H38        -3.4522    4.5901   51.3207 H       1  ZINC000459459628    0.0600
     39 H39        -3.3448    5.0924   49.6165 H       1  ZINC000459459628    0.0700
     40 H40        -4.8642    5.3163   50.5163 H       1  ZINC000459459628    0.0800
     41 H41        -2.1564    3.9273   49.0559 H       1  ZINC000459459628    0.4100
     42 H42        -3.0673    2.1074   46.3890 H       1  ZINC000459459628    0.1600
     43 H43         0.6600    0.0834   45.7377 H       1  ZINC000459459628    0.1400
     44 H44         1.4532    0.8415   47.9362 H       1  ZINC000459459628    0.1500
     45 H45         0.9745    0.6332   50.4183 H       1  ZINC000459459628    0.1900
@<TRIPOS>BOND
     1     1     2    1
     2     1    29    1
     3     1    30    1
     4     1    31    1
     5     2     3    1
     6     2     4    1
     7     2    12    1
     8     4     5    1
     9     4    32    1
    10     4    33    1
    11     5    11   ar
    12     5     6   ar
    13     6     7   ar
    14     6    34    1
    15     7     8   ar
    16     7    35    1
    17     8     9   ar
    18     8    36    1
    19     9    10    1
    20     9    11   ar
    21    11    37    1
    22    12    13    1
    23    12    14   am
    24    13    38    1
    25    13    39    1
    26    13    40    1
    27    14    15    2
    28    14    16   am
    29    16    17    1
    30    16    41    1
    31    17    24   ar
    32    17    18   ar
    33    18    19   ar
    34    18    42    1
    35    19    20    1
    36    19    22   ar
    37    20    21    3
    38    22    23   ar
    39    22    43    1
    40    23    24   ar
    41    23    44    1
    42    24    25    1
    43    25    26    1
    44    26    27    1
    45    26    28    1
    46    26    45    1
@<TRIPOS>SUBSTRUCTURE
     1 ZINC000459459628        1 TEMP              0 ****  ****    0 ROOT


##########                                Name:    ZINC000588570917
##########                DOCK_Rotatable_Bonds:                   7
##########                         Heavy_Atoms:                  25
##########                    Molecular_Weight:             366.481
##########                DOCK_Rotatable_Bonds:                   7
##########                       Formal_Charge:          -0.0100006
##########                     HBond_Acceptors:                   7
##########                        HBond_Donors:                   1
##########                         Heavy_Atoms:                  25
##########                          Grid_Score:          -31.364855
##########                     Grid_vdw_energy:          -29.781078
##########                      Grid_es_energy:           -1.583777
##########           Internal_energy_repulsive:           18.506523

@<TRIPOS>MOLECULE
ZINC000588570917
 51 52 1 0 0
SMALL
USER_CHARGES


@<TRIPOS>ATOM
      1 C1         -7.0519    1.2392   65.8283 C.3     1  ZINC000588570917   -0.1300
      2 C2         -7.6178    0.5731   64.6008 C.2     1  ZINC000588570917   -0.0500
      3 C3         -8.7549    1.0137   64.0695 C.2     1  ZINC000588570917   -0.2000
      4 C4         -9.4783    2.1777   64.6962 C.3     1  ZINC000588570917   -0.0900
      5 C5        -10.4775    1.6592   65.7322 C.3     1  ZINC000588570917   -0.1500
      6 C6         -9.3063    0.3647   62.8705 C.2     1  ZINC000588570917    0.5600
      7 O7        -10.5000    0.4195   62.6439 O.2     1  ZINC000588570917   -0.5100
      8 N8         -8.4889   -0.2908   62.0229 N.am    1  ZINC000588570917   -0.6800
      9 C9         -9.0131   -0.9079   60.8828 C.ar    1  ZINC000588570917    0.2100
     10 C10        -8.6413   -0.4668   59.6194 C.ar    1  ZINC000588570917   -0.1700
     11 C11        -9.1604   -1.0790   58.4955 C.ar    1  ZINC000588570917    0.0000
     12 C12       -10.0495   -2.1298   58.6270 C.ar    1  ZINC000588570917   -0.7000
     13 S13       -10.7095   -2.9080   57.1904 S.o2    1  ZINC000588570917    2.6900
     14 O14       -10.1454   -2.2339   56.0740 O.2     1  ZINC000588570917   -0.9500
     15 O15       -10.5829   -4.3079   57.3984 O.2     1  ZINC000588570917   -0.9500
     16 N16       -12.3335   -2.5848   57.1602 N.am    1  ZINC000588570917   -1.0000
     17 C17       -12.9417   -1.8656   56.0296 C.3     1  ZINC000588570917    0.0900
     18 C18       -14.1540   -2.6675   55.5425 C.3     1  ZINC000588570917    0.0700
     19 H19       -13.8166   -3.6041   55.0986 H       1  ZINC000588570917    0.0700
     20 C20       -14.9188   -1.8531   54.4972 C.3     1  ZINC000588570917   -0.1500
     21 O21       -15.0108   -2.9463   56.6524 O.3     1  ZINC000588570917   -0.3700
     22 C22       -14.4100   -3.7550   57.6667 C.3     1  ZINC000588570917    0.0800
     23 H23       -15.1396   -3.9568   58.4510 H       1  ZINC000588570917    0.1200
     24 C24       -13.9388   -5.0758   57.0549 C.3     1  ZINC000588570917   -0.1900
     25 C25       -13.2118   -3.0138   58.2600 C.3     1  ZINC000588570917    0.0900
     26 C26       -10.4214   -2.5718   59.8834 C.ar    1  ZINC000588570917    0.0000
     27 C27        -9.9022   -1.9673   61.0114 C.ar    1  ZINC000588570917   -0.1400
     28 H28        -6.1239    0.7445   66.1149 H       1  ZINC000588570917    0.0600
     29 H29        -6.8524    2.2889   65.6129 H       1  ZINC000588570917    0.0800
     30 H30        -7.7699    1.1660   66.6452 H       1  ZINC000588570917    0.0800
     31 H31        -7.1002   -0.2620   64.1524 H       1  ZINC000588570917    0.1300
     32 H32        -8.7572    2.8338   65.1835 H       1  ZINC000588570917    0.0700
     33 H33       -10.0108    2.7329   63.9240 H       1  ZINC000588570917    0.0800
     34 H34        -9.9450    1.1040   66.5045 H       1  ZINC000588570917    0.0500
     35 H35       -11.0008    2.5011   66.1856 H       1  ZINC000588570917    0.0600
     36 H36       -11.1987    1.0030   65.2449 H       1  ZINC000588570917    0.0600
     37 H37        -7.5369   -0.3345   62.2036 H       1  ZINC000588570917    0.4100
     38 H38        -7.9472    0.3542   59.5159 H       1  ZINC000588570917    0.1400
     39 H39        -8.8719   -0.7362   57.5127 H       1  ZINC000588570917    0.1400
     40 H40       -13.2627   -0.8758   56.3542 H       1  ZINC000588570917    0.0900
     41 H41       -12.2160   -1.7703   55.2219 H       1  ZINC000588570917    0.1000
     42 H42       -14.2632   -1.6378   53.6534 H       1  ZINC000588570917    0.0700
     43 H43       -15.7806   -2.4238   54.1511 H       1  ZINC000588570917    0.0700
     44 H44       -15.2575   -0.9173   54.9420 H       1  ZINC000588570917    0.0700
     45 H45       -13.2080   -4.8733   56.2720 H       1  ZINC000588570917    0.0600
     46 H46       -13.4809   -5.6918   57.8289 H       1  ZINC000588570917    0.0700
     47 H47       -14.7918   -5.6033   56.6280 H       1  ZINC000588570917    0.0700
     48 H48       -12.6655   -3.6768   58.9309 H       1  ZINC000588570917    0.1000
     49 H49       -13.5572   -2.1381   58.8096 H       1  ZINC000588570917    0.0900
     50 H50       -11.1160   -3.3928   59.9827 H       1  ZINC000588570917    0.1400
     51 H51       -10.1928   -2.3131   61.9924 H       1  ZINC000588570917    0.1500
@<TRIPOS>BOND
     1     1     2    1
     2     1    28    1
     3     1    29    1
     4     1    30    1
     5     2     3    2
     6     2    31    1
     7     3     4    1
     8     3     6    1
     9     4     5    1
    10     4    32    1
    11     4    33    1
    12     5    34    1
    13     5    35    1
    14     5    36    1
    15     6     7    2
    16     6     8   am
    17     8     9    1
    18     8    37    1
    19     9    27   ar
    20     9    10   ar
    21    10    11   ar
    22    10    38    1
    23    11    12   ar
    24    11    39    1
    25    12    13    1
    26    12    26   ar
    27    13    14    2
    28    13    15    2
    29    13    16   am
    30    16    25    1
    31    16    17    1
    32    17    18    1
    33    17    40    1
    34    17    41    1
    35    18    19    1
    36    18    20    1
    37    18    21    1
    38    20    42    1
    39    20    43    1
    40    20    44    1
    41    21    22    1
    42    22    23    1
    43    22    24    1
    44    22    25    1
    45    24    45    1
    46    24    46    1
    47    24    47    1
    48    25    48    1
    49    25    49    1
    50    26    27   ar
    51    26    50    1
    52    27    51    1
@<TRIPOS>SUBSTRUCTURE
     1 ZINC000588570917        1 TEMP              0 ****  ****    0 ROOT


##########                                Name:    ZINC000047262406
##########                DOCK_Rotatable_Bonds:                   6
##########                         Heavy_Atoms:                  28
##########                    Molecular_Weight:             417.919
##########                DOCK_Rotatable_Bonds:                   6
##########                       Formal_Charge:          -0.0100002
##########                     HBond_Acceptors:                   9
##########                        HBond_Donors:                   1
##########                         Heavy_Atoms:                  28
##########                          Grid_Score:          -31.359730
##########                     Grid_vdw_energy:          -31.084854
##########                      Grid_es_energy:           -0.274876
##########           Internal_energy_repulsive:           12.213028

@<TRIPOS>MOLECULE
ZINC000047262406
 48 51 1 0 0
SMALL
USER_CHARGES


@<TRIPOS>ATOM
      1 C1         -8.2316    4.5501   51.1962 C.3     1  ZINC000047262406   -0.1500
      2 C2         -7.3138    3.5295   51.8722 C.3     1  ZINC000047262406    0.1800
      3 H3         -6.8019    4.0009   52.7112 H       1  ZINC000047262406    0.0800
      4 C4         -6.2963    3.0328   50.8777 C.2     1  ZINC000047262406    0.1700
      5 N5         -6.5321    2.6882   49.6433 N.2     1  ZINC000047262406   -0.2500
      6 N6         -5.4362    2.3136   49.0831 N.2     1  ZINC000047262406   -0.2700
      7 C7         -4.4522    2.4074   49.9508 C.2     1  ZINC000047262406    0.2400
      8 C8         -3.0402    2.0756   49.7084 C.2     1  ZINC000047262406   -0.1500
      9 C9         -2.0216    2.2770   50.5891 C.2     1  ZINC000047262406   -0.0600
     10 C10        -0.7843    1.8831   50.1294 C.2     1  ZINC000047262406   -0.1400
     11 C11        -0.7734    1.3666   48.8963 C.2     1  ZINC000047262406   -0.1900
     12 S12        -2.4037    1.3497   48.2382 S.3     1  ZINC000047262406    0.1700
     13 O13        -4.9796    2.8708   51.1027 O.3     1  ZINC000047262406   -0.2200
     14 N14        -8.1143    2.3985   52.3600 N.3     1  ZINC000047262406   -0.5200
     15 C15        -8.8070    2.7435   53.6080 C.3     1  ZINC000047262406    0.0500
     16 C16        -9.7411    1.5992   54.0077 C.3     1  ZINC000047262406   -0.1000
     17 C17        -8.9215    0.3191   54.1939 C.3     1  ZINC000047262406   -0.1100
     18 C18        -9.8435   -0.8248   54.5291 C.2     1  ZINC000047262406    0.5100
     19 O19       -10.3185   -1.5010   53.6414 O.2     1  ZINC000047262406   -0.4600
     20 N20       -10.1401   -1.0965   55.8155 N.am    1  ZINC000047262406   -0.6600
     21 C21       -10.9933   -2.1552   56.1257 C.ar    1  ZINC000047262406    0.3600
     22 C22       -12.3477   -2.0567   55.8300 C.ar    1  ZINC000047262406   -0.2000
     23 C23       -13.1839   -3.1144   56.1425 C.ar    1  ZINC000047262406   -0.0400
     24 C24       -12.6331   -4.2391   56.7430 C.ar    1  ZINC000047262406   -0.1200
     25 Cl25      -13.6371   -5.5941   57.1552 Cl      1  ZINC000047262406   -0.0500
     26 C26       -11.2768   -4.2681   57.0084 C.ar    1  ZINC000047262406    0.1500
     27 N27       -10.5046   -3.2460   56.6941 N.ar    1  ZINC000047262406   -0.4600
     28 C28        -8.1722    0.0089   52.8952 C.3     1  ZINC000047262406   -0.1100
     29 C29        -7.2836    1.1993   52.5277 C.3     1  ZINC000047262406    0.0600
     30 H30        -8.9676    4.9093   51.9155 H       1  ZINC000047262406    0.0800
     31 H31        -7.6377    5.3893   50.8343 H       1  ZINC000047262406    0.0700
     32 H32        -8.7436    4.0787   50.3572 H       1  ZINC000047262406    0.0800
     33 H33        -2.1713    2.7100   51.5672 H       1  ZINC000047262406    0.1600
     34 H34         0.1126    1.9846   50.7224 H       1  ZINC000047262406    0.1600
     35 H35         0.1063    1.0087   48.3820 H       1  ZINC000047262406    0.1800
     36 H36        -8.0732    2.9060   54.3976 H       1  ZINC000047262406    0.0400
     37 H37        -9.3893    3.6531   53.4609 H       1  ZINC000047262406    0.0900
     38 H38       -10.2433    1.8489   54.9424 H       1  ZINC000047262406    0.0800
     39 H39       -10.4837    1.4451   53.2248 H       1  ZINC000047262406    0.0900
     40 H40        -8.2058    0.4595   55.0039 H       1  ZINC000047262406    0.1000
     41 H41        -9.7602   -0.5557   56.5255 H       1  ZINC000047262406    0.4200
     42 H42       -12.7426   -1.1666   55.3628 H       1  ZINC000047262406    0.1500
     43 H43       -14.2406   -3.0661   55.9248 H       1  ZINC000047262406    0.1500
     44 H44       -10.8435   -5.1401   57.4756 H       1  ZINC000047262406    0.1700
     45 H45        -7.5536   -0.8776   53.0349 H       1  ZINC000047262406    0.0700
     46 H46        -8.8901   -0.1701   52.0947 H       1  ZINC000047262406    0.0800
     47 H47        -6.7595    0.9873   51.5958 H       1  ZINC000047262406    0.0700
     48 H48        -6.5570    1.3691   53.3223 H       1  ZINC000047262406    0.0400
@<TRIPOS>BOND
     1     1     2    1
     2     1    30    1
     3     1    31    1
     4     1    32    1
     5     2     3    1
     6     2     4    1
     7     2    14    1
     8     4    13    1
     9     4     5    2
    10     5     6    1
    11     6     7    2
    12     7     8    1
    13     7    13    1
    14     8    12    1
    15     8     9    2
    16     9    10    1
    17     9    33    1
    18    10    11    2
    19    10    34    1
    20    11    12    1
    21    11    35    1
    22    14    29    1
    23    14    15    1
    24    15    16    1
    25    15    36    1
    26    15    37    1
    27    16    17    1
    28    16    38    1
    29    16    39    1
    30    17    18    1
    31    17    28    1
    32    17    40    1
    33    18    19    2
    34    18    20   am
    35    20    21    1
    36    20    41    1
    37    21    27   ar
    38    21    22   ar
    39    22    23   ar
    40    22    42    1
    41    23    24   ar
    42    23    43    1
    43    24    25    1
    44    24    26   ar
    45    26    27   ar
    46    26    44    1
    47    28    29    1
    48    28    45    1
    49    28    46    1
    50    29    47    1
    51    29    48    1
@<TRIPOS>SUBSTRUCTURE
     1 ZINC000047262406        1 TEMP              0 ****  ****    0 ROOT


##########                                Name:    ZINC000342525234
##########                DOCK_Rotatable_Bonds:                   6
##########                         Heavy_Atoms:                  25
##########                    Molecular_Weight:             333.349
##########                DOCK_Rotatable_Bonds:                   6
##########                       Formal_Charge:           0.0500003
##########                     HBond_Acceptors:                   7
##########                        HBond_Donors:                   2
##########                         Heavy_Atoms:                  25
##########                          Grid_Score:          -31.357100
##########                     Grid_vdw_energy:          -29.848358
##########                      Grid_es_energy:           -1.508741
##########           Internal_energy_repulsive:            3.552250

@<TRIPOS>MOLECULE
ZINC000342525234
 40 43 1 0 0
SMALL
USER_CHARGES


@<TRIPOS>ATOM
      1 O1         -7.2233    0.1162   51.0946 O.2     1  <0>        -0.5100
      2 C2         -6.5839    0.5088   52.0502 C.2     1  <0>         0.6000
      3 N3         -5.3692    1.0631   51.8665 N.am    1  <0>        -0.7100
      4 C4         -4.8172    1.1868   50.5151 C.3     1  <0>         0.1200
      5 C5         -3.7726    2.3044   50.4911 C.3     1  <0>        -0.0900
      6 C6         -2.7941    2.0534   49.3728 C.ar    1  <0>        -0.0400
      7 C7         -3.2057    2.2068   48.0895 C.ar    1  <0>        -0.1000
      8 C8         -2.2979    1.9744   47.0339 C.ar    1  <0>         0.1100
      9 N9         -2.3714    2.0311   45.7165 N.2     1  <0>        -0.3100
     10 N10        -1.1270    1.6874   45.1763 N.pl3   1  <0>        -0.4200
     11 C11        -0.2614    1.4117   46.1612 C.2     1  <0>         0.0900
     12 C12        -0.9227    1.5696   47.3649 C.ar    1  <0>        -0.2100
     13 C13        -0.5643    1.4294   48.7227 C.ar    1  <0>        -0.0400
     14 C14        -1.4868    1.6746   49.6866 C.ar    1  <0>        -0.1500
     15 C15        -7.1427    0.3836   53.4186 C.2     1  <0>        -0.0200
     16 N16        -8.0683   -0.4549   53.8159 N.2     1  <0>        -0.3200
     17 O17        -8.3191   -0.3218   54.9908 O.3     1  <0>         0.1400
     18 C18        -7.5763    0.6484   55.5521 C.2     1  <0>         0.0100
     19 C19        -7.6122    1.0875   56.9639 C.ar    1  <0>         0.0200
     20 C20        -6.8069    2.1418   57.4099 C.ar    1  <0>        -0.1400
     21 C21        -6.8726    2.5189   58.7354 C.ar    1  <0>         0.1100
     22 N22        -7.6789    1.9005   59.5767 N.ar    1  <0>        -0.4800
     23 C23        -8.4543    0.9025   59.1979 C.ar    1  <0>         0.1100
     24 C24        -8.4565    0.4642   57.8897 C.ar    1  <0>        -0.1500
     25 C25        -6.7772    1.1441   54.5604 C.2     1  <0>        -0.1500
     26 H26        -4.8605    1.3801   52.6291 H       1  <0>         0.4100
     27 H27        -4.3493    0.2457   50.2263 H       1  <0>         0.0800
     28 H28        -5.6189    1.4236   49.8155 H       1  <0>         0.0800
     29 H29        -4.2686    3.2618   50.3319 H       1  <0>         0.0900
     30 H30        -3.2403    2.3246   51.4421 H       1  <0>         0.0800
     31 H31        -4.2216    2.5047   47.8767 H       1  <0>         0.1300
     32 H32        -0.9215    1.6535   44.2290 H       1  <0>         0.4500
     33 H33         0.7703    1.1177   46.0367 H       1  <0>         0.1900
     34 H34         0.4387    1.1334   48.9927 H       1  <0>         0.1300
     35 H35        -1.2054    1.5656   50.7237 H       1  <0>         0.1200
     36 H36        -6.1440    2.6521   56.7270 H       1  <0>         0.1400
     37 H37        -6.2551    3.3313   59.0893 H       1  <0>         0.1700
     38 H38        -9.0990    0.4250   59.9208 H       1  <0>         0.1700
     39 H39        -9.0940   -0.3534   57.5867 H       1  <0>         0.1500
     40 H40        -6.0437    1.9340   54.6279 H       1  <0>         0.1900
@<TRIPOS>BOND
     1     1     2    2
     2     2     3   am
     3     2    15    1
     4     3     4    1
     5     3    26    1
     6     4     5    1
     7     4    27    1
     8     4    28    1
     9     5     6    1
    10     5    29    1
    11     5    30    1
    12     6    14   ar
    13     6     7   ar
    14     7     8   ar
    15     7    31    1
    16     8    12   ar
    17     8     9    2
    18     9    10    1
    19    10    11    1
    20    10    32    1
    21    11    12    2
    22    11    33    1
    23    12    13   ar
    24    13    14   ar
    25    13    34    1
    26    14    35    1
    27    15    25    1
    28    15    16    2
    29    16    17    1
    30    17    18    1
    31    18    19    1
    32    18    25    2
    33    19    24   ar
    34    19    20   ar
    35    20    21   ar
    36    20    36    1
    37    21    22   ar
    38    21    37    1
    39    22    23   ar
    40    23    24   ar
    41    23    38    1
    42    24    39    1
    43    25    40    1
@<TRIPOS>SUBSTRUCTURE
     1 <0>         1 TEMP              0 ****  ****    0 ROOT


##########                                Name:    ZINC001456607258
##########                DOCK_Rotatable_Bonds:                   9
##########                         Heavy_Atoms:                  25
##########                    Molecular_Weight:             339.437
##########                DOCK_Rotatable_Bonds:                   9
##########                       Formal_Charge:          -0.0200009
##########                     HBond_Acceptors:                   5
##########                        HBond_Donors:                   2
##########                         Heavy_Atoms:                  25
##########                          Grid_Score:          -31.350044
##########                     Grid_vdw_energy:          -31.995077
##########                      Grid_es_energy:            0.645033
##########           Internal_energy_repulsive:           15.602843

@<TRIPOS>MOLECULE
ZINC001456607258
 50 52 1 0 0
SMALL
USER_CHARGES


@<TRIPOS>ATOM
      1 C1         -7.0818    3.4686   49.8584 C.3     1  ZINC001456607258   -0.1600
      2 C2         -5.5887    3.7275   50.0697 C.3     1  ZINC001456607258   -0.1100
      3 C3         -4.8096    2.4295   49.8474 C.3     1  ZINC001456607258   -0.1000
      4 H4         -5.4333    1.7200   49.3038 H       1  ZINC001456607258    0.0900
      5 C5         -4.4175    1.8320   51.2003 C.3     1  ZINC001456607258   -0.0700
      6 C6         -5.6297    1.2110   51.8453 C.ar    1  ZINC001456607258   -0.0800
      7 C7         -6.2281    0.1051   51.2709 C.ar    1  ZINC001456607258   -0.1200
      8 C8         -7.3401   -0.4645   51.8626 C.ar    1  ZINC001456607258   -0.1200
      9 C9         -7.8533    0.0715   53.0288 C.ar    1  ZINC001456607258   -0.1200
     10 C10        -7.2544    1.1768   53.6037 C.ar    1  ZINC001456607258   -0.1200
     11 C11        -6.1399    1.7437   53.0144 C.ar    1  ZINC001456607258   -0.1200
     12 C12        -3.5660    2.7209   49.0476 C.2     1  ZINC001456607258    0.5200
     13 O13        -2.8357    3.6329   49.3727 O.2     1  ZINC001456607258   -0.5300
     14 N14        -3.2654    1.9679   47.9710 N.am    1  ZINC001456607258   -0.7300
     15 C15        -2.0565    2.2511   47.1935 C.3     1  ZINC001456607258    0.1300
     16 C16        -0.9447    1.2860   47.6097 C.3     1  ZINC001456607258   -0.1400
     17 C17         0.4078    1.5687   46.9310 C.3     1  ZINC001456607258    0.1100
     18 N18         1.0113    1.3112   48.2530 N.am    1  ZINC001456607258   -0.6500
     19 C19         2.2265    0.9083   48.6742 C.2     1  ZINC001456607258    0.6100
     20 O20         3.1045    0.6762   47.8651 O.2     1  ZINC001456607258   -0.5400
     21 C21         2.4913    0.7492   50.1141 C.2     1  ZINC001456607258   -0.2300
     22 C22         1.7249    1.2142   51.1471 C.2     1  ZINC001456607258    0.0400
     23 N23         2.3125    0.8592   52.3054 N.pl3   1  ZINC001456607258   -0.5500
     24 C24         3.4606    0.1637   52.0602 C.2     1  ZINC001456607258   -0.0200
     25 C25         3.6267    0.0544   50.7302 C.2     1  ZINC001456607258   -0.1400
     26 C26        -0.2503    1.6721   48.9283 C.3     1  ZINC001456607258    0.1100
     27 H27        -7.6451    4.3686   50.1054 H       1  ZINC001456607258    0.0600
     28 H28        -7.2605    3.2027   48.8165 H       1  ZINC001456607258    0.0600
     29 H29        -7.4035    2.6505   50.5026 H       1  ZINC001456607258    0.0600
     30 H30        -5.2469    4.4822   49.3614 H       1  ZINC001456607258    0.0800
     31 H31        -5.4218    4.0818   51.0869 H       1  ZINC001456607258    0.0700
     32 H32        -3.6534    1.0688   51.0526 H       1  ZINC001456607258    0.0800
     33 H33        -4.0257    2.6186   51.8451 H       1  ZINC001456607258    0.0900
     34 H34        -5.8271   -0.3136   50.3597 H       1  ZINC001456607258    0.1200
     35 H35        -7.8080   -1.3280   51.4134 H       1  ZINC001456607258    0.1200
     36 H36        -8.7225   -0.3730   53.4906 H       1  ZINC001456607258    0.1200
     37 H37        -7.6556    1.5958   54.5147 H       1  ZINC001456607258    0.1200
     38 H38        -5.6719    2.6073   53.4635 H       1  ZINC001456607258    0.1200
     39 H39        -3.8495    1.2384   47.7110 H       1  ZINC001456607258    0.4000
     40 H40        -2.2692    2.1241   46.1320 H       1  ZINC001456607258    0.0700
     41 H41        -1.7364    3.2762   47.3798 H       1  ZINC001456607258    0.0800
     42 H42        -1.2504    0.2407   47.5645 H       1  ZINC001456607258    0.1100
     43 H43         0.6809    0.8346   46.1729 H       1  ZINC001456607258    0.0800
     44 H44         0.5213    2.5974   46.5891 H       1  ZINC001456607258    0.0900
     45 H45         0.8050    1.7717   51.0501 H       1  ZINC001456607258    0.1700
     46 H46         1.9690    1.0684   53.1882 H       1  ZINC001456607258    0.4200
     47 H47         4.1245   -0.2379   52.8115 H       1  ZINC001456607258    0.1700
     48 H48         4.4388   -0.4399   50.2177 H       1  ZINC001456607258    0.1500
     49 H49        -0.3302    2.7313   49.1731 H       1  ZINC001456607258    0.0900
     50 H50        -0.5026    1.0206   49.7650 H       1  ZINC001456607258    0.0900
@<TRIPOS>BOND
     1     1     2    1
     2     1    27    1
     3     1    28    1
     4     1    29    1
     5     2     3    1
     6     2    30    1
     7     2    31    1
     8     3     4    1
     9     3     5    1
    10     3    12    1
    11     5     6    1
    12     5    32    1
    13     5    33    1
    14     6    11   ar
    15     6     7   ar
    16     7     8   ar
    17     7    34    1
    18     8     9   ar
    19     8    35    1
    20     9    10   ar
    21     9    36    1
    22    10    11   ar
    23    10    37    1
    24    11    38    1
    25    12    13    2
    26    12    14   am
    27    14    15    1
    28    14    39    1
    29    15    16    1
    30    15    40    1
    31    15    41    1
    32    16    26    1
    33    16    17    1
    34    16    42    1
    35    17    18    1
    36    17    43    1
    37    17    44    1
    38    18    19   am
    39    18    26    1
    40    19    20    2
    41    19    21    1
    42    21    25    1
    43    21    22    2
    44    22    23    1
    45    22    45    1
    46    23    24    1
    47    23    46    1
    48    24    25    2
    49    24    47    1
    50    25    48    1
    51    26    49    1
    52    26    50    1
@<TRIPOS>SUBSTRUCTURE
     1 ZINC001456607258        1 TEMP              0 ****  ****    0 ROOT


##########                                Name:    ZINC000263872566
##########                DOCK_Rotatable_Bonds:                   9
##########                         Heavy_Atoms:                  26
##########                    Molecular_Weight:             362.469
##########                DOCK_Rotatable_Bonds:                   9
##########                       Formal_Charge:           0.0300001
##########                     HBond_Acceptors:                   6
##########                        HBond_Donors:                   2
##########                         Heavy_Atoms:                  26
##########                          Grid_Score:          -31.347679
##########                     Grid_vdw_energy:          -29.717934
##########                      Grid_es_energy:           -1.629745
##########           Internal_energy_repulsive:           21.648628

@<TRIPOS>MOLECULE
ZINC000263872566
 56 57 1 0 0
SMALL
USER_CHARGES


@<TRIPOS>ATOM
      1 C1         -6.2058    2.1553   49.8797 C.3     1  ZINC000263872566   -0.1800
      2 C2         -5.4758    1.1596   50.7832 C.3     1  ZINC000263872566    0.1400
      3 H3         -5.7548    0.1435   50.5042 H       1  ZINC000263872566    0.0700
      4 O4         -4.0645    1.3246   50.6313 O.3     1  ZINC000263872566   -0.5600
      5 C5         -5.8591    1.4094   52.2190 C.ar    1  ZINC000263872566   -0.0800
      6 C6         -6.5210    0.4316   52.9379 C.ar    1  ZINC000263872566   -0.0900
      7 C7         -6.8727    0.6607   54.2549 C.ar    1  ZINC000263872566   -0.1000
      8 C8         -6.5619    1.8674   54.8534 C.ar    1  ZINC000263872566   -0.1100
      9 C9         -6.9456    2.1174   56.2892 C.3     1  ZINC000263872566    0.1800
     10 N10        -7.9400    1.1265   56.7085 N.am    1  ZINC000263872566   -0.7400
     11 C11        -7.8999    0.6180   57.9560 C.2     1  ZINC000263872566    0.7100
     12 O12        -7.0385    0.9815   58.7333 O.2     1  ZINC000263872566   -0.5900
     13 N13        -8.8146   -0.2936   58.3418 N.am    1  ZINC000263872566   -0.6300
     14 C14        -8.7875   -0.8526   59.7003 C.3     1  ZINC000263872566    0.1100
     15 C15       -10.1673   -0.6643   60.3386 C.3     1  ZINC000263872566   -0.1200
     16 C16       -11.2341   -1.2766   59.4280 C.3     1  ZINC000263872566   -0.0800
     17 C17       -12.5893   -1.1233   60.0689 C.2     1  ZINC000263872566    0.4700
     18 O18       -13.0311   -0.0209   60.2918 O.2     1  ZINC000263872566   -0.5000
     19 O19       -13.3058   -2.2113   60.3923 O.3     1  ZINC000263872566   -0.3500
     20 C20       -14.5532   -2.4155   59.6776 C.3     1  ZINC000263872566    0.1200
     21 C21       -15.6598   -1.5899   60.3369 C.3     1  ZINC000263872566   -0.1800
     22 C22       -14.3854   -1.9737   58.2224 C.3     1  ZINC000263872566   -0.1400
     23 C23       -14.9287   -3.8981   59.7202 C.3     1  ZINC000263872566   -0.1800
     24 C24       -11.2255   -0.5599   58.0758 C.3     1  ZINC000263872566   -0.1300
     25 C25        -9.8615   -0.7427   57.4138 C.3     1  ZINC000263872566    0.1300
     26 C26        -5.8987    2.8447   54.1350 C.ar    1  ZINC000263872566   -0.1000
     27 C27        -5.5438    2.6142   52.8191 C.ar    1  ZINC000263872566   -0.1100
     28 H28        -5.9267    3.1713   50.1587 H       1  ZINC000263872566    0.0700
     29 H29        -5.9286    1.9745   48.8411 H       1  ZINC000263872566    0.0600
     30 H30        -7.2823    2.0295   49.9955 H       1  ZINC000263872566    0.0700
     31 H31        -3.7365    1.1116   49.7468 H       1  ZINC000263872566    0.3800
     32 H32        -6.7638   -0.5111   52.4703 H       1  ZINC000263872566    0.1300
     33 H33        -7.3905   -0.1029   54.8163 H       1  ZINC000263872566    0.1300
     34 H34        -6.0614    2.0348   56.9212 H       1  ZINC000263872566    0.0800
     35 H35        -7.3676    3.1179   56.3835 H       1  ZINC000263872566    0.0800
     36 H36        -8.6271    0.8365   56.0883 H       1  ZINC000263872566    0.4000
     37 H37        -8.5485   -1.9151   59.6534 H       1  ZINC000263872566    0.0800
     38 H38        -8.0359   -0.3328   60.2944 H       1  ZINC000263872566    0.0800
     39 H39       -10.1897   -1.1594   61.3093 H       1  ZINC000263872566    0.0900
     40 H40       -10.3662    0.3996   60.4677 H       1  ZINC000263872566    0.0800
     41 H41       -11.0204   -2.3350   59.2792 H       1  ZINC000263872566    0.1100
     42 H42       -15.3922   -0.5337   60.3064 H       1  ZINC000263872566    0.0600
     43 H43       -16.5961   -1.7432   59.8004 H       1  ZINC000263872566    0.0700
     44 H44       -15.7793   -1.9048   61.3736 H       1  ZINC000263872566    0.0800
     45 H45       -13.5971   -2.5618   57.7527 H       1  ZINC000263872566    0.0700
     46 H46       -15.3218   -2.1269   57.6859 H       1  ZINC000263872566    0.0800
     47 H47       -14.1179   -0.9174   58.1920 H       1  ZINC000263872566    0.0700
     48 H48       -15.0482   -4.2129   60.7570 H       1  ZINC000263872566    0.0800
     49 H49       -15.8650   -4.0514   59.1838 H       1  ZINC000263872566    0.0700
     50 H50       -14.1404   -4.4863   59.2506 H       1  ZINC000263872566    0.0600
     51 H51       -12.0012   -0.9810   57.4361 H       1  ZINC000263872566    0.0900
     52 H52       -11.4145    0.5029   58.2262 H       1  ZINC000263872566    0.0700
     53 H53        -9.8176   -0.1527   56.4983 H       1  ZINC000263872566    0.1000
     54 H54        -9.7069   -1.7961   57.1799 H       1  ZINC000263872566    0.0700
     55 H55        -5.6557    3.7874   54.6027 H       1  ZINC000263872566    0.1300
     56 H56        -5.0256    3.3777   52.2579 H       1  ZINC000263872566    0.1300
@<TRIPOS>BOND
     1     1     2    1
     2     1    28    1
     3     1    29    1
     4     1    30    1
     5     2     3    1
     6     2     4    1
     7     2     5    1
     8     4    31    1
     9     5    27   ar
    10     5     6   ar
    11     6     7   ar
    12     6    32    1
    13     7     8   ar
    14     7    33    1
    15     8     9    1
    16     8    26   ar
    17     9    10    1
    18     9    34    1
    19     9    35    1
    20    10    11   am
    21    10    36    1
    22    11    12    2
    23    11    13   am
    24    13    25    1
    25    13    14    1
    26    14    15    1
    27    14    37    1
    28    14    38    1
    29    15    16    1
    30    15    39    1
    31    15    40    1
    32    16    17    1
    33    16    24    1
    34    16    41    1
    35    17    18    2
    36    17    19    1
    37    19    20    1
    38    20    21    1
    39    20    22    1
    40    20    23    1
    41    21    42    1
    42    21    43    1
    43    21    44    1
    44    22    45    1
    45    22    46    1
    46    22    47    1
    47    23    48    1
    48    23    49    1
    49    23    50    1
    50    24    25    1
    51    24    51    1
    52    24    52    1
    53    25    53    1
    54    25    54    1
    55    26    27   ar
    56    26    55    1
    57    27    56    1
@<TRIPOS>SUBSTRUCTURE
     1 ZINC000263872566        1 TEMP              0 ****  ****    0 ROOT


##########                                Name:    ZINC000444811358
##########                DOCK_Rotatable_Bonds:                  11
##########                         Heavy_Atoms:                  27
##########                    Molecular_Weight:             374.455
##########                DOCK_Rotatable_Bonds:                  11
##########                       Formal_Charge:          0.00999966
##########                     HBond_Acceptors:                   6
##########                        HBond_Donors:                   2
##########                         Heavy_Atoms:                  27
##########                          Grid_Score:          -31.340612
##########                     Grid_vdw_energy:          -30.573807
##########                      Grid_es_energy:           -0.766805
##########           Internal_energy_repulsive:           37.831306

@<TRIPOS>MOLECULE
ZINC000444811358
 54 55 1 0 0
SMALL
USER_CHARGES


@<TRIPOS>ATOM
      1 C1         -8.2565   -0.2855   52.9273 C.3     1  ZINC000444811358   -0.1100
      2 C2         -6.9934    0.4123   52.4927 C.ar    1  ZINC000444811358   -0.1300
      3 C3         -6.4555    0.1522   51.2463 C.ar    1  ZINC000444811358   -0.0700
      4 C4         -5.2976    0.7898   50.8448 C.ar    1  ZINC000444811358   -0.1500
      5 C5         -4.6730    1.6936   51.6940 C.ar    1  ZINC000444811358    0.1700
      6 N6         -3.5004    2.3406   51.2889 N.am    1  ZINC000444811358   -0.6800
      7 C7         -3.5701    3.4266   50.4937 C.2     1  ZINC000444811358    0.5200
      8 O8         -4.6494    3.8430   50.1293 O.2     1  ZINC000444811358   -0.5000
      9 C9         -2.3071    4.1233   50.0573 C.3     1  ZINC000444811358    0.0200
     10 N10        -1.2168    3.1439   49.9584 N.3     1  ZINC000444811358   -0.5000
     11 C11        -0.5053    3.2754   48.6800 C.3     1  ZINC000444811358    0.0200
     12 C12        -1.2801    2.5367   47.5868 C.3     1  ZINC000444811358    0.1100
     13 H13        -2.3501    2.6453   47.7633 H       1  ZINC000444811358    0.1200
     14 O14        -0.9489    3.0900   46.3116 O.3     1  ZINC000444811358   -0.5400
     15 C15        -0.9071    1.0530   47.6113 C.3     1  ZINC000444811358    0.0300
     16 O16        -1.4984    0.3946   46.4893 O.3     1  ZINC000444811358   -0.3000
     17 C17        -0.7648    0.3444   45.3465 C.ar    1  ZINC000444811358    0.1300
     18 C18         0.4816    0.9514   45.2936 C.ar    1  ZINC000444811358   -0.2100
     19 C19         1.2257    0.8985   44.1309 C.ar    1  ZINC000444811358   -0.0800
     20 C20         0.7290    0.2416   43.0203 C.ar    1  ZINC000444811358   -0.1600
     21 C21        -0.5131   -0.3638   43.0702 C.ar    1  ZINC000444811358   -0.0800
     22 C22        -1.2584   -0.3190   44.2325 C.ar    1  ZINC000444811358   -0.1500
     23 C23        -0.2908    3.2708   51.0918 C.3     1  ZINC000444811358    0.0700
     24 C24         0.5325    1.9878   51.2238 C.3     1  ZINC000444811358   -0.1400
     25 C25         0.6469    4.4562   50.8539 C.3     1  ZINC000444811358   -0.1900
     26 C26        -5.2142    1.9546   52.9458 C.ar    1  ZINC000444811358   -0.1500
     27 C27        -6.3767    1.3175   53.3408 C.ar    1  ZINC000444811358    0.1200
     28 F28        -6.9049    1.5700   54.5583 F       1  ZINC000444811358   -0.1300
     29 H29        -9.1206    0.3071   52.6271 H       1  ZINC000444811358    0.0700
     30 H30        -8.3088   -1.2679   52.4579 H       1  ZINC000444811358    0.0700
     31 H31        -8.2536   -0.4004   54.0112 H       1  ZINC000444811358    0.0700
     32 H32        -6.9410   -0.5506   50.5854 H       1  ZINC000444811358    0.1400
     33 H33        -4.8781    0.5851   49.8709 H       1  ZINC000444811358    0.1300
     34 H34        -2.6372    2.0076   51.5803 H       1  ZINC000444811358    0.4100
     35 H35        -2.4665    4.5890   49.0847 H       1  ZINC000444811358    0.1300
     36 H36        -2.0433    4.8883   50.7876 H       1  ZINC000444811358    0.0700
     37 H37        -0.4224    4.3300   48.4172 H       1  ZINC000444811358    0.0500
     38 H38         0.4916    2.8446   48.7730 H       1  ZINC000444811358    0.1000
     39 H39        -1.5790    2.8700   45.6117 H       1  ZINC000444811358    0.3700
     40 H40         0.1769    0.9500   47.5633 H       1  ZINC000444811358    0.0600
     41 H41        -1.2745    0.6012   48.5328 H       1  ZINC000444811358    0.0700
     42 H42         0.8698    1.4652   46.1607 H       1  ZINC000444811358    0.1300
     43 H43         2.1960    1.3708   44.0893 H       1  ZINC000444811358    0.1200
     44 H44         1.3121    0.2016   42.1121 H       1  ZINC000444811358    0.1200
     45 H45        -0.8990   -0.8760   42.2012 H       1  ZINC000444811358    0.1300
     46 H46        -2.2285   -0.7920   44.2710 H       1  ZINC000444811358    0.1300
     47 H47        -0.8581    3.4343   52.0080 H       1  ZINC000444811358    0.0900
     48 H48         1.1984    1.8936   50.3660 H       1  ZINC000444811358    0.0500
     49 H49         1.1226    2.0275   52.1393 H       1  ZINC000444811358    0.0600
     50 H50        -0.1371    1.1286   51.2600 H       1  ZINC000444811358    0.0700
     51 H51         0.0604    5.3701   50.7599 H       1  ZINC000444811358    0.0500
     52 H52         1.3339    4.5503   51.6949 H       1  ZINC000444811358    0.0700
     53 H53         1.2142    4.2927   49.9378 H       1  ZINC000444811358    0.0600
     54 H54        -4.7304    2.6568   53.6086 H       1  ZINC000444811358    0.1500
@<TRIPOS>BOND
     1     1     2    1
     2     1    29    1
     3     1    30    1
     4     1    31    1
     5     2    27   ar
     6     2     3   ar
     7     3     4   ar
     8     3    32    1
     9     4     5   ar
    10     4    33    1
    11     5     6    1
    12     5    26   ar
    13     6     7   am
    14     6    34    1
    15     7     8    2
    16     7     9    1
    17     9    10    1
    18     9    35    1
    19     9    36    1
    20    10    11    1
    21    10    23    1
    22    11    12    1
    23    11    37    1
    24    11    38    1
    25    12    13    1
    26    12    14    1
    27    12    15    1
    28    14    39    1
    29    15    16    1
    30    15    40    1
    31    15    41    1
    32    16    17    1
    33    17    22   ar
    34    17    18   ar
    35    18    19   ar
    36    18    42    1
    37    19    20   ar
    38    19    43    1
    39    20    21   ar
    40    20    44    1
    41    21    22   ar
    42    21    45    1
    43    22    46    1
    44    23    24    1
    45    23    25    1
    46    23    47    1
    47    24    48    1
    48    24    49    1
    49    24    50    1
    50    25    51    1
    51    25    52    1
    52    25    53    1
    53    26    27   ar
    54    26    54    1
    55    27    28    1
@<TRIPOS>SUBSTRUCTURE
     1 ZINC000444811358        1 TEMP              0 ****  ****    0 ROOT


##########                                Name:    ZINC000439870054
##########                DOCK_Rotatable_Bonds:                   5
##########                         Heavy_Atoms:                  27
##########                    Molecular_Weight:             421.974
##########                DOCK_Rotatable_Bonds:                   5
##########                       Formal_Charge:           0.0200003
##########                     HBond_Acceptors:                   9
##########                        HBond_Donors:                   0
##########                         Heavy_Atoms:                  27
##########                          Grid_Score:          -31.329662
##########                     Grid_vdw_energy:          -31.024696
##########                      Grid_es_energy:           -0.304966
##########           Internal_energy_repulsive:           66.090324

@<TRIPOS>MOLECULE
ZINC000439870054
 47 50 1 0 0
SMALL
USER_CHARGES


@<TRIPOS>ATOM
      1 C1         -0.3070    1.8549   45.2180 C.3     1  ZINC000439870054   -0.1400
      2 C2          0.1438    0.9316   46.3516 C.3     1  ZINC000439870054    0.0000
      3 C3          1.5940    0.5043   46.1153 C.3     1  ZINC000439870054   -0.1400
      4 C4          0.0434    1.6630   47.6654 C.2     1  ZINC000439870054    0.1900
      5 N5          1.0223    2.2501   48.3046 N.2     1  ZINC000439870054   -0.2900
      6 N6          0.5777    2.7739   49.3956 N.2     1  ZINC000439870054   -0.2700
      7 C7         -0.6946    2.5424   49.4981 C.2     1  ZINC000439870054    0.1600
      8 C8         -1.6409    2.9453   50.6033 C.3     1  ZINC000439870054    0.2400
      9 H9         -1.4359    2.3607   51.5001 H       1  ZINC000439870054    0.1100
     10 C10        -1.4852    4.4370   50.9059 C.3     1  ZINC000439870054   -0.1300
     11 N11        -3.0076    2.6673   50.1224 N.am    1  ZINC000439870054   -0.6300
     12 C12        -4.0060    3.5499   50.3236 C.2     1  ZINC000439870054    0.5300
     13 O13        -3.7872    4.5903   50.9072 O.2     1  ZINC000439870054   -0.4900
     14 C14        -5.3942    3.2441   49.8232 C.3     1  ZINC000439870054   -0.0700
     15 C15        -6.0360    2.2162   50.7191 C.2     1  ZINC000439870054    0.0900
     16 C16        -6.4989    1.0547   50.2478 C.2     1  ZINC000439870054   -0.2400
     17 S17        -7.1684    0.1384   51.5962 S.3     1  ZINC000439870054    0.1300
     18 C18        -6.7451    1.4508   52.6926 C.2     1  ZINC000439870054    0.1400
     19 C19        -6.9943    1.4663   54.1423 C.2     1  ZINC000439870054   -0.1300
     20 C20        -6.4446    2.3346   55.0191 C.2     1  ZINC000439870054   -0.1000
     21 C21        -6.8309    2.1517   56.3292 C.2     1  ZINC000439870054   -0.1200
     22 C22        -7.6892    1.1448   56.5320 C.2     1  ZINC000439870054   -0.1500
     23 Cl23       -8.3432    0.6851   58.0730 Cl      1  ZINC000439870054    0.0000
     24 S24        -8.0601    0.3620   55.0016 S.3     1  ZINC000439870054    0.2500
     25 N25        -6.1700    2.4046   52.0126 N.2     1  ZINC000439870054   -0.4400
     26 C26        -3.2494    1.3996   49.4168 C.3     1  ZINC000439870054    0.0900
     27 C27        -2.4319    1.3792   48.1199 C.3     1  ZINC000439870054    0.0900
     28 N28        -1.0728    1.8404   48.3997 N.pl3   1  ZINC000439870054   -0.4700
     29 H29        -0.2343    1.3259   44.2678 H       1  ZINC000439870054    0.0700
     30 H30        -1.3400    2.1593   45.3864 H       1  ZINC000439870054    0.0500
     31 H31         0.3323    2.7374   45.1923 H       1  ZINC000439870054    0.0700
     32 H32        -0.4953    0.0491   46.3773 H       1  ZINC000439870054    0.0800
     33 H33         1.9152   -0.1535   46.9229 H       1  ZINC000439870054    0.0500
     34 H34         1.6665   -0.0247   45.1651 H       1  ZINC000439870054    0.0700
     35 H35         2.2331    1.3869   46.0895 H       1  ZINC000439870054    0.0700
     36 H36        -1.8502    5.0194   50.0600 H       1  ZINC000439870054    0.0600
     37 H37        -2.0613    4.6892   51.7963 H       1  ZINC000439870054    0.0900
     38 H38        -0.4332    4.6651   51.0773 H       1  ZINC000439870054    0.0700
     39 H39        -5.9919    4.1557   49.8299 H       1  ZINC000439870054    0.1100
     40 H40        -5.3364    2.8548   48.8067 H       1  ZINC000439870054    0.1200
     41 H41        -6.4685    0.7330   49.2173 H       1  ZINC000439870054    0.1800
     42 H42        -5.7564    3.1103   54.7173 H       1  ZINC000439870054    0.1500
     43 H43        -6.4676    2.7747   57.1332 H       1  ZINC000439870054    0.1600
     44 H44        -2.9467    0.5665   50.0512 H       1  ZINC000439870054    0.0900
     45 H45        -4.3097    1.3114   49.1802 H       1  ZINC000439870054    0.1200
     46 H46        -2.4003    0.3636   47.7253 H       1  ZINC000439870054    0.1100
     47 H47        -2.8939    2.0413   47.3876 H       1  ZINC000439870054    0.0900
@<TRIPOS>BOND
     1     1     2    1
     2     1    29    1
     3     1    30    1
     4     1    31    1
     5     2     3    1
     6     2     4    1
     7     2    32    1
     8     3    33    1
     9     3    34    1
    10     3    35    1
    11     4    28    1
    12     4     5    2
    13     5     6    1
    14     6     7    2
    15     7    28    1
    16     7     8    1
    17     8     9    1
    18     8    10    1
    19     8    11    1
    20    10    36    1
    21    10    37    1
    22    10    38    1
    23    11    12   am
    24    11    26    1
    25    12    13    2
    26    12    14    1
    27    14    15    1
    28    14    39    1
    29    14    40    1
    30    15    25    1
    31    15    16    2
    32    16    17    1
    33    16    41    1
    34    17    18    1
    35    18    19    1
    36    18    25    2
    37    19    24    1
    38    19    20    2
    39    20    21    1
    40    20    42    1
    41    21    22    2
    42    21    43    1
    43    22    23    1
    44    22    24    1
    45    26    27    1
    46    26    44    1
    47    26    45    1
    48    27    28    1
    49    27    46    1
    50    27    47    1
@<TRIPOS>SUBSTRUCTURE
     1 ZINC000439870054        1 TEMP              0 ****  ****    0 ROOT


##########                                Name:    ZINC000451019064
##########                DOCK_Rotatable_Bonds:                   8
##########                         Heavy_Atoms:                  23
##########                    Molecular_Weight:             346.534
##########                DOCK_Rotatable_Bonds:                   8
##########                       Formal_Charge:          -0.0200008
##########                     HBond_Acceptors:                   6
##########                        HBond_Donors:                   1
##########                         Heavy_Atoms:                  23
##########                          Grid_Score:          -31.327280
##########                     Grid_vdw_energy:          -30.608603
##########                      Grid_es_energy:           -0.718678
##########           Internal_energy_repulsive:           13.978641

@<TRIPOS>MOLECULE
ZINC000451019064
 57 58 1 0 0
SMALL
USER_CHARGES


@<TRIPOS>ATOM
      1 C1         -6.4162   -0.3923   51.1213 C.3     1  ZINC000451019064   -0.1500
      2 C2         -5.9891    0.7726   50.2261 C.3     1  ZINC000451019064    0.0900
      3 H3         -6.1375    0.5017   49.1808 H       1  ZINC000451019064    0.0700
      4 C4         -4.5105    1.0876   50.4678 C.3     1  ZINC000451019064    0.0200
      5 N5         -4.1257    2.2559   49.6627 N.3     1  ZINC000451019064   -0.5400
      6 C6         -2.6970    2.5578   49.8223 C.3     1  ZINC000451019064    0.0600
      7 C7         -1.8857    1.7267   48.8262 C.3     1  ZINC000451019064   -0.1300
      8 C8         -1.9889    2.3548   47.4348 C.3     1  ZINC000451019064    0.1100
      9 N9         -2.2976    1.3141   46.4510 N.am    1  ZINC000451019064   -1.1200
     10 S10        -1.1759    0.8984   45.3058 S.o2    1  ZINC000451019064    2.6100
     11 O11        -1.7749   -0.1829   44.6049 O.2     1  ZINC000451019064   -0.9600
     12 O12        -0.8766    2.1219   44.6480 O.2     1  ZINC000451019064   -0.9500
     13 C13         0.2546    0.3230   46.2613 C.3     1  ZINC000451019064   -0.6300
     14 C14         1.5373    0.5938   45.4725 C.3     1  ZINC000451019064   -0.1100
     15 C15         2.3318    1.7075   46.1574 C.3     1  ZINC000451019064   -0.0800
     16 C16         2.6890    1.2775   47.5816 C.3     1  ZINC000451019064   -0.1200
     17 C17         3.4835    2.3913   48.2666 C.3     1  ZINC000451019064   -0.1200
     18 C18         4.7668    2.6610   47.4784 C.3     1  ZINC000451019064   -0.1200
     19 C19         4.4097    3.0911   46.0541 C.3     1  ZINC000451019064   -0.1200
     20 C20         3.6151    1.9773   45.3692 C.3     1  ZINC000451019064   -0.1200
     21 C21        -4.9523    3.4216   50.0080 C.3     1  ZINC000451019064    0.0200
     22 C22        -6.4265    3.0833   49.7710 C.3     1  ZINC000451019064    0.0900
     23 H23        -6.5877    2.8803   48.7123 H       1  ZINC000451019064    0.0700
     24 C24        -7.2977    4.2645   50.2032 C.3     1  ZINC000451019064   -0.1500
     25 O25        -6.7749    1.9265   50.5365 O.3     1  ZINC000451019064   -0.3800
     26 H26        -7.4694   -0.6150   50.9500 H       1  ZINC000451019064    0.0700
     27 H27        -5.8160   -1.2709   50.8853 H       1  ZINC000451019064    0.0700
     28 H28        -6.2677   -0.1208   52.1665 H       1  ZINC000451019064    0.0600
     29 H29        -4.3527    1.3055   51.5240 H       1  ZINC000451019064    0.0400
     30 H30        -3.9036    0.2299   50.1777 H       1  ZINC000451019064    0.0900
     31 H31        -2.5265    3.6179   49.6347 H       1  ZINC000451019064    0.0400
     32 H32        -2.3853    2.3137   50.8378 H       1  ZINC000451019064    0.0800
     33 H33        -0.8416    1.7036   49.1378 H       1  ZINC000451019064    0.0800
     34 H34        -2.2787    0.7104   48.7960 H       1  ZINC000451019064    0.0800
     35 H35        -2.7809    3.1037   47.4321 H       1  ZINC000451019064    0.0800
     36 H36        -1.0409    2.8275   47.1784 H       1  ZINC000451019064    0.0700
     37 H37        -3.1590    0.8684   46.4704 H       1  ZINC000451019064    0.4200
     38 H38         0.2939    0.8543   47.2124 H       1  ZINC000451019064    0.1300
     39 H39         0.1611   -0.7471   46.4468 H       1  ZINC000451019064    0.1400
     40 H40         2.1402   -0.3136   45.4368 H       1  ZINC000451019064    0.0800
     41 H41         1.2821    0.9005   44.4581 H       1  ZINC000451019064    0.0800
     42 H42         1.7292    2.6151   46.1923 H       1  ZINC000451019064    0.0800
     43 H43         1.7747    1.0853   48.1431 H       1  ZINC000451019064    0.0600
     44 H44         3.2915    0.3698   47.5468 H       1  ZINC000451019064    0.0700
     45 H45         2.8809    3.2988   48.3014 H       1  ZINC000451019064    0.0600
     46 H46         3.7379    2.0849   49.2812 H       1  ZINC000451019064    0.0600
     47 H47         5.3328    3.4545   47.9664 H       1  ZINC000451019064    0.0600
     48 H48         5.3694    1.7535   47.4435 H       1  ZINC000451019064    0.0600
     49 H49         3.8071    3.9987   46.0889 H       1  ZINC000451019064    0.0600
     50 H50         5.3239    3.2833   45.4926 H       1  ZINC000451019064    0.0600
     51 H51         4.2177    1.0697   45.3343 H       1  ZINC000451019064    0.0700
     52 H52         3.3607    2.2837   44.3545 H       1  ZINC000451019064    0.0600
     53 H53        -4.8016    3.6767   51.0569 H       1  ZINC000451019064    0.0400
     54 H54        -4.6680    4.2677   49.3824 H       1  ZINC000451019064    0.0900
     55 H55        -7.0294    5.1460   49.6209 H       1  ZINC000451019064    0.0700
     56 H56        -8.3471    4.0230   50.0342 H       1  ZINC000451019064    0.0700
     57 H57        -7.1372    4.4659   51.2623 H       1  ZINC000451019064    0.0600
@<TRIPOS>BOND
     1     1     2    1
     2     1    26    1
     3     1    27    1
     4     1    28    1
     5     2     3    1
     6     2    25    1
     7     2     4    1
     8     4     5    1
     9     4    29    1
    10     4    30    1
    11     5     6    1
    12     5    21    1
    13     6     7    1
    14     6    31    1
    15     6    32    1
    16     7     8    1
    17     7    33    1
    18     7    34    1
    19     8     9    1
    20     8    35    1
    21     8    36    1
    22     9    10   am
    23     9    37    1
    24    10    11    2
    25    10    12    2
    26    10    13    1
    27    13    14    1
    28    13    38    1
    29    13    39    1
    30    14    15    1
    31    14    40    1
    32    14    41    1
    33    15    20    1
    34    15    16    1
    35    15    42    1
    36    16    17    1
    37    16    43    1
    38    16    44    1
    39    17    18    1
    40    17    45    1
    41    17    46    1
    42    18    19    1
    43    18    47    1
    44    18    48    1
    45    19    20    1
    46    19    49    1
    47    19    50    1
    48    20    51    1
    49    20    52    1
    50    21    22    1
    51    21    53    1
    52    21    54    1
    53    22    23    1
    54    22    24    1
    55    22    25    1
    56    24    55    1
    57    24    56    1
    58    24    57    1
@<TRIPOS>SUBSTRUCTURE
     1 ZINC000451019064        1 TEMP              0 ****  ****    0 ROOT


##########                                Name:    ZINC000187810810
##########                DOCK_Rotatable_Bonds:                   7
##########                         Heavy_Atoms:                  27
##########                    Molecular_Weight:             386.414
##########                DOCK_Rotatable_Bonds:                   7
##########                       Formal_Charge:           0.0599998
##########                     HBond_Acceptors:                   8
##########                        HBond_Donors:                   1
##########                         Heavy_Atoms:                  27
##########                          Grid_Score:          -31.323162
##########                     Grid_vdw_energy:          -29.282295
##########                      Grid_es_energy:           -2.040867
##########           Internal_energy_repulsive:           45.592037

@<TRIPOS>MOLECULE
ZINC000187810810
 52 53 1 0 0
SMALL
USER_CHARGES


@<TRIPOS>ATOM
      1 C1         -6.5463    0.4199   52.1058 C.3     1  ZINC000187810810   -0.1800
      2 C2         -6.1828    1.7102   51.3681 C.3     1  ZINC000187810810    0.1400
      3 C3         -6.5615    1.5776   49.8917 C.3     1  ZINC000187810810   -0.1800
      4 C4         -6.9455    2.8834   51.9869 C.3     1  ZINC000187810810   -0.1400
      5 O5         -4.7549    1.9471   51.4822 O.3     1  ZINC000187810810   -0.3600
      6 C6         -4.2026    2.7931   50.5923 C.2     1  ZINC000187810810    0.6500
      7 O7         -4.7039    3.8828   50.3981 O.2     1  ZINC000187810810   -0.5600
      8 N8         -3.0938    2.4314   49.9170 N.am    1  ZINC000187810810   -0.6000
      9 C9         -2.4808    1.1140   50.1352 C.3     1  ZINC000187810810    0.1100
     10 C10        -1.0010    1.3098   50.4800 C.3     1  ZINC000187810810   -0.1400
     11 C11        -0.3314    2.1407   49.3829 C.3     1  ZINC000187810810    0.1800
     12 C12         1.1545    2.3091   49.7064 C.3     1  ZINC000187810810   -0.1600
     13 N13        -0.4762    1.4567   48.0956 N.am    1  ZINC000187810810   -0.7100
     14 C14         0.0565    1.9972   46.9817 C.2     1  ZINC000187810810    0.5500
     15 O15         0.6557    3.0528   47.0450 O.2     1  ZINC000187810810   -0.5100
     16 C16        -0.0881    1.3060   45.6827 C.ar    1  ZINC000187810810   -0.0900
     17 C17        -1.3576    1.0150   45.1811 C.ar    1  ZINC000187810810   -0.0900
     18 C18        -1.4855    0.3701   43.9680 C.ar    1  ZINC000187810810   -0.0900
     19 C19        -0.3589    0.0117   43.2496 C.ar    1  ZINC000187810810   -0.0900
     20 C20         0.9027    0.2968   43.7415 C.ar    1  ZINC000187810810   -0.0800
     21 C21         1.0444    0.9466   44.9499 C.ar    1  ZINC000187810810   -0.1300
     22 C22         2.4191    1.2568   45.4840 C.3     1  ZINC000187810810    0.5200
     23 F23         2.5173    0.8103   46.8062 F       1  ZINC000187810810   -0.1800
     24 F24         3.3807    0.6096   44.7006 F       1  ZINC000187810810   -0.1600
     25 F25         2.6354    2.6383   45.4410 F       1  ZINC000187810810   -0.1600
     26 C26        -0.9957    3.5174   49.3061 C.3     1  ZINC000187810810   -0.1500
     27 C27        -2.4786    3.3444   48.9440 C.3     1  ZINC000187810810    0.1300
     28 H28        -6.0030   -0.4159   51.6649 H       1  ZINC000187810810    0.0900
     29 H29        -6.2766    0.5144   53.1575 H       1  ZINC000187810810    0.0600
     30 H30        -7.6183    0.2421   52.0201 H       1  ZINC000187810810    0.0700
     31 H31        -7.6335    1.3998   49.8061 H       1  ZINC000187810810    0.0700
     32 H32        -6.3027    2.4969   49.3662 H       1  ZINC000187810810    0.0600
     33 H33        -6.0182    0.7418   49.4509 H       1  ZINC000187810810    0.0900
     34 H34        -6.6757    2.9779   53.0387 H       1  ZINC000187810810    0.0700
     35 H35        -6.6866    3.8026   51.4614 H       1  ZINC000187810810    0.0700
     36 H36        -8.0175    2.7056   51.9012 H       1  ZINC000187810810    0.0800
     37 H37        -2.9843    0.6087   50.9594 H       1  ZINC000187810810    0.1000
     38 H38        -2.5687    0.5154   49.2285 H       1  ZINC000187810810    0.0700
     39 H39        -0.9155    1.8301   51.4339 H       1  ZINC000187810810    0.0900
     40 H40        -0.5122    0.3382   50.5499 H       1  ZINC000187810810    0.0900
     41 H41         1.6280    1.3288   49.7600 H       1  ZINC000187810810    0.0600
     42 H42         1.6316    2.9010   48.9252 H       1  ZINC000187810810    0.0800
     43 H43         1.2624    2.8177   50.6645 H       1  ZINC000187810810    0.0700
     44 H44        -0.9554    0.6149   48.0448 H       1  ZINC000187810810    0.4000
     45 H45        -2.2378    1.2937   45.7414 H       1  ZINC000187810810    0.1400
     46 H46        -2.4673    0.1443   43.5788 H       1  ZINC000187810810    0.1400
     47 H47        -0.4645   -0.4933   42.3008 H       1  ZINC000187810810    0.1400
     48 H48         1.7781    0.0140   43.1759 H       1  ZINC000187810810    0.1500
     49 H49        -0.9102    4.0169   50.2712 H       1  ZINC000187810810    0.0800
     50 H50        -0.5031    4.1168   48.5406 H       1  ZINC000187810810    0.1000
     51 H51        -2.5635    2.9283   47.9400 H       1  ZINC000187810810    0.0700
     52 H52        -2.9799    4.3114   48.9846 H       1  ZINC000187810810    0.1000
@<TRIPOS>BOND
     1     1     2    1
     2     1    28    1
     3     1    29    1
     4     1    30    1
     5     2     3    1
     6     2     4    1
     7     2     5    1
     8     3    31    1
     9     3    32    1
    10     3    33    1
    11     4    34    1
    12     4    35    1
    13     4    36    1
    14     5     6    1
    15     6     7    2
    16     6     8   am
    17     8    27    1
    18     8     9    1
    19     9    10    1
    20     9    37    1
    21     9    38    1
    22    10    11    1
    23    10    39    1
    24    10    40    1
    25    11    12    1
    26    11    13    1
    27    11    26    1
    28    12    41    1
    29    12    42    1
    30    12    43    1
    31    13    14   am
    32    13    44    1
    33    14    15    2
    34    14    16    1
    35    16    21   ar
    36    16    17   ar
    37    17    18   ar
    38    17    45    1
    39    18    19   ar
    40    18    46    1
    41    19    20   ar
    42    19    47    1
    43    20    21   ar
    44    20    48    1
    45    21    22    1
    46    22    23    1
    47    22    24    1
    48    22    25    1
    49    26    27    1
    50    26    49    1
    51    26    50    1
    52    27    51    1
    53    27    52    1
@<TRIPOS>SUBSTRUCTURE
     1 ZINC000187810810        1 TEMP              0 ****  ****    0 ROOT


##########                                Name:    ZINC000573150059
##########                DOCK_Rotatable_Bonds:                   7
##########                         Heavy_Atoms:                  23
##########                    Molecular_Weight:             378.269
##########                DOCK_Rotatable_Bonds:                   7
##########                       Formal_Charge:        -2.98023e-07
##########                     HBond_Acceptors:                   5
##########                        HBond_Donors:                   2
##########                         Heavy_Atoms:                  23
##########                          Grid_Score:          -31.296757
##########                     Grid_vdw_energy:          -30.558958
##########                      Grid_es_energy:           -0.737798
##########           Internal_energy_repulsive:            7.321305

@<TRIPOS>MOLECULE
ZINC000573150059
 43 44 1 0 0
SMALL
USER_CHARGES


@<TRIPOS>ATOM
      1 C1         -1.2024   -0.4124   43.3816 C.3     1  ZINC000573150059    0.0300
      2 O2         -1.4802    0.6393   44.3083 O.3     1  ZINC000573150059   -0.3600
      3 C3         -0.8526    0.4733   45.5813 C.3     1  ZINC000573150059    0.0700
      4 H4         -0.8649   -0.5810   45.8577 H       1  ZINC000573150059    0.0900
      5 C5          0.5947    0.9634   45.5042 C.3     1  ZINC000573150059   -0.1700
      6 C6         -1.5993    1.2730   46.6176 C.2     1  ZINC000573150059    0.5100
      7 O7         -2.7143    1.6856   46.3777 O.2     1  ZINC000573150059   -0.4900
      8 N8         -1.0280    1.5299   47.8109 N.am    1  ZINC000573150059   -0.6700
      9 C9         -1.7214    2.2724   48.7731 C.ar    1  ZINC000573150059    0.1900
     10 C10        -1.3719    3.5949   49.0153 C.ar    1  ZINC000573150059   -0.2000
     11 C11        -2.0559    4.3291   49.9653 C.ar    1  ZINC000573150059   -0.0500
     12 C12        -3.0894    3.7514   50.6767 C.ar    1  ZINC000573150059   -0.2200
     13 C13        -3.4443    2.4288   50.4389 C.ar    1  ZINC000573150059    0.2400
     14 N14        -4.4896    1.8453   51.1582 N.pl3   1  ZINC000573150059   -0.7300
     15 C15        -5.8112    2.4774   51.1729 C.3     1  ZINC000573150059    0.2000
     16 H16        -5.7517    3.4316   51.6963 H       1  ZINC000573150059    0.1000
     17 C17        -6.2801    2.7124   49.7355 C.3     1  ZINC000573150059   -0.1700
     18 C18        -6.7910    1.5767   51.8799 C.ar    1  ZINC000573150059    0.1400
     19 C19        -6.8950    0.2514   51.5025 C.ar    1  ZINC000573150059   -0.1600
     20 C20        -7.7991   -0.5694   52.1594 C.ar    1  ZINC000573150059   -0.0400
     21 C21        -8.5685   -0.0232   53.1761 C.ar    1  ZINC000573150059   -0.1500
     22 Br22       -9.8188   -1.0910   54.1102 Br      1  ZINC000573150059   -0.0300
     23 C23        -8.4089    1.3124   53.4983 C.ar    1  ZINC000573150059    0.1400
     24 N24        -7.5352    2.0613   52.8548 N.ar    1  ZINC000573150059   -0.4700
     25 C25        -2.7624    1.6904   49.4822 C.ar    1  ZINC000573150059   -0.1900
     26 H26        -0.1281   -0.4675   43.2059 H       1  ZINC000573150059    0.0500
     27 H27        -1.5524   -1.3598   43.7918 H       1  ZINC000573150059    0.0400
     28 H28        -1.7147   -0.2125   42.4406 H       1  ZINC000573150059    0.0900
     29 H29         0.6070    2.0177   45.2277 H       1  ZINC000573150059    0.0700
     30 H30         1.0734    0.8369   46.4751 H       1  ZINC000573150059    0.0700
     31 H31         1.1348    0.3850   44.7547 H       1  ZINC000573150059    0.0700
     32 H32        -0.1363    1.1999   48.0028 H       1  ZINC000573150059    0.4100
     33 H33        -0.5643    4.0496   48.4607 H       1  ZINC000573150059    0.1200
     34 H34        -1.7817    5.3569   50.1521 H       1  ZINC000573150059    0.1300
     35 H35        -3.6218    4.3277   51.4187 H       1  ZINC000573150059    0.1200
     36 H36        -4.3406    1.0214   51.6482 H       1  ZINC000573150059    0.4100
     37 H37        -6.3396    1.7582   49.2121 H       1  ZINC000573150059    0.0600
     38 H38        -7.2633    3.1827   49.7465 H       1  ZINC000573150059    0.0700
     39 H39        -5.5713    3.3638   49.2241 H       1  ZINC000573150059    0.0700
     40 H40        -6.2799   -0.1401   50.7058 H       1  ZINC000573150059    0.1500
     41 H41        -7.9020   -1.6091   51.8855 H       1  ZINC000573150059    0.1500
     42 H42        -9.0042    1.7458   54.2884 H       1  ZINC000573150059    0.1700
     43 H43        -3.0364    0.6626   49.2951 H       1  ZINC000573150059    0.1400
@<TRIPOS>BOND
     1     1     2    1
     2     1    26    1
     3     1    27    1
     4     1    28    1
     5     2     3    1
     6     3     4    1
     7     3     5    1
     8     3     6    1
     9     5    29    1
    10     5    30    1
    11     5    31    1
    12     6     7    2
    13     6     8   am
    14     8     9    1
    15     8    32    1
    16     9    25   ar
    17     9    10   ar
    18    10    11   ar
    19    10    33    1
    20    11    12   ar
    21    11    34    1
    22    12    13   ar
    23    12    35    1
    24    13    14    1
    25    13    25   ar
    26    14    15    1
    27    14    36    1
    28    15    16    1
    29    15    17    1
    30    15    18    1
    31    17    37    1
    32    17    38    1
    33    17    39    1
    34    18    24   ar
    35    18    19   ar
    36    19    20   ar
    37    19    40    1
    38    20    21   ar
    39    20    41    1
    40    21    22    1
    41    21    23   ar
    42    23    24   ar
    43    23    42    1
    44    25    43    1
@<TRIPOS>SUBSTRUCTURE
     1 ZINC000573150059        1 TEMP              0 ****  ****    0 ROOT


##########                                Name:    ZINC000151820600
##########                DOCK_Rotatable_Bonds:                  10
##########                         Heavy_Atoms:                  25
##########                    Molecular_Weight:             388.915
##########                DOCK_Rotatable_Bonds:                  10
##########                       Formal_Charge:           0.0499998
##########                     HBond_Acceptors:                   8
##########                        HBond_Donors:                   2
##########                         Heavy_Atoms:                  25
##########                          Grid_Score:          -31.296011
##########                     Grid_vdw_energy:          -31.196350
##########                      Grid_es_energy:           -0.099660
##########           Internal_energy_repulsive:           14.352613

@<TRIPOS>MOLECULE
ZINC000151820600
 50 50 1 0 0
SMALL
USER_CHARGES


@<TRIPOS>ATOM
      1 C1         -6.7205   -0.7373   52.1093 C.3     1  ZINC000151820600   -0.4900
      2 S2         -8.4896   -0.3937   52.3159 S.o     1  ZINC000151820600    1.2500
      3 O3         -8.8217    0.8076   51.6333 O.2     1  ZINC000151820600   -0.8500
      4 C4         -8.6492   -0.1367   54.1045 C.3     1  ZINC000151820600   -0.4500
      5 C5        -10.1086    0.1689   54.4476 C.3     1  ZINC000151820600   -0.1100
      6 C6        -10.2231    0.5046   55.9360 C.3     1  ZINC000151820600    0.1200
      7 N7        -10.0079   -0.7087   56.7282 N.am    1  ZINC000151820600   -0.7200
      8 C8        -10.9171   -1.0812   57.6507 C.2     1  ZINC000151820600    0.5200
      9 O9        -11.9128   -0.4111   57.8259 O.2     1  ZINC000151820600   -0.5200
     10 C10       -10.6967   -2.3303   58.4644 C.3     1  ZINC000151820600    0.1900
     11 H11        -9.7806   -2.8211   58.1357 H       1  ZINC000151820600    0.1300
     12 N12       -10.5796   -1.9759   59.8811 N.am    1  ZINC000151820600   -0.6900
     13 C13        -9.3625   -1.8114   60.4363 C.2     1  ZINC000151820600    0.6600
     14 O14        -8.3624   -1.9585   59.7621 O.2     1  ZINC000151820600   -0.5600
     15 O15        -9.2550   -1.4842   61.7378 O.3     1  ZINC000151820600   -0.3600
     16 C16        -9.3392   -0.0736   62.0719 C.3     1  ZINC000151820600    0.1400
     17 C17        -8.4532    0.2169   63.2851 C.3     1  ZINC000151820600   -0.1800
     18 C18        -8.8637    0.7617   60.8815 C.3     1  ZINC000151820600   -0.1400
     19 C19       -10.7891    0.2869   62.4014 C.3     1  ZINC000151820600   -0.1800
     20 C20       -11.8633   -3.2654   58.2753 C.ar    1  ZINC000151820600   -0.1000
     21 C21       -11.7107   -4.4183   57.5282 C.ar    1  ZINC000151820600   -0.0900
     22 C22       -12.7803   -5.2769   57.3548 C.ar    1  ZINC000151820600   -0.1000
     23 C23       -14.0029   -4.9827   57.9278 C.ar    1  ZINC000151820600   -0.1000
     24 C24       -14.1563   -3.8287   58.6758 C.ar    1  ZINC000151820600   -0.0300
     25 Cl25      -15.6917   -3.4586   59.3965 Cl      1  ZINC000151820600   -0.0600
     26 C26       -13.0842   -2.9729   58.8537 C.ar    1  ZINC000151820600   -0.0900
     27 H27        -6.1410    0.1153   52.4634 H       1  ZINC000151820600    0.0800
     28 H28        -6.4528   -1.6231   52.6854 H       1  ZINC000151820600    0.1100
     29 H29        -6.5047   -0.9106   51.0550 H       1  ZINC000151820600    0.1100
     30 H30        -8.3333   -1.0375   54.6306 H       1  ZINC000151820600    0.1200
     31 H31        -8.0215    0.7009   54.4086 H       1  ZINC000151820600    0.0900
     32 H32       -10.4508    1.0181   53.8562 H       1  ZINC000151820600    0.0800
     33 H33       -10.7246   -0.7019   54.2231 H       1  ZINC000151820600    0.0900
     34 H34        -9.4714    1.2487   56.1993 H       1  ZINC000151820600    0.0800
     35 H35       -11.2165    0.9026   56.1432 H       1  ZINC000151820600    0.0700
     36 H36        -9.2110   -1.2440   56.5889 H       1  ZINC000151820600    0.4000
     37 H37       -11.3780   -1.8597   60.4196 H       1  ZINC000151820600    0.4200
     38 H38        -7.4202   -0.0400   63.0503 H       1  ZINC000151820600    0.0600
     39 H39        -8.5163    1.2757   63.5359 H       1  ZINC000151820600    0.0700
     40 H40        -8.7919   -0.3783   64.1331 H       1  ZINC000151820600    0.0900
     41 H41        -9.4949    0.5548   60.0172 H       1  ZINC000151820600    0.0700
     42 H42        -8.9269    1.8206   61.1323 H       1  ZINC000151820600    0.0800
     43 H43        -7.8307    0.5048   60.6468 H       1  ZINC000151820600    0.0700
     44 H44       -11.1278   -0.3082   63.2494 H       1  ZINC000151820600    0.0900
     45 H45       -10.8522    1.3457   62.6522 H       1  ZINC000151820600    0.0700
     46 H46       -11.4203    0.0799   61.5371 H       1  ZINC000151820600    0.0600
     47 H47       -10.7555   -4.6483   57.0796 H       1  ZINC000151820600    0.1300
     48 H48       -12.6606   -6.1777   56.7709 H       1  ZINC000151820600    0.1400
     49 H49       -14.8386   -5.6531   57.7916 H       1  ZINC000151820600    0.1400
     50 H50       -13.2033   -2.0720   59.4374 H       1  ZINC000151820600    0.1400
@<TRIPOS>BOND
     1     1     2    1
     2     1    27    1
     3     1    28    1
     4     1    29    1
     5     2     3    2
     6     2     4    1
     7     4     5    1
     8     4    30    1
     9     4    31    1
    10     5     6    1
    11     5    32    1
    12     5    33    1
    13     6     7    1
    14     6    34    1
    15     6    35    1
    16     7     8   am
    17     7    36    1
    18     8     9    2
    19     8    10    1
    20    10    11    1
    21    10    12    1
    22    10    20    1
    23    12    13   am
    24    12    37    1
    25    13    14    2
    26    13    15    1
    27    15    16    1
    28    16    17    1
    29    16    18    1
    30    16    19    1
    31    17    38    1
    32    17    39    1
    33    17    40    1
    34    18    41    1
    35    18    42    1
    36    18    43    1
    37    19    44    1
    38    19    45    1
    39    19    46    1
    40    20    26   ar
    41    20    21   ar
    42    21    22   ar
    43    21    47    1
    44    22    23   ar
    45    22    48    1
    46    23    24   ar
    47    23    49    1
    48    24    25    1
    49    24    26   ar
    50    26    50    1
@<TRIPOS>SUBSTRUCTURE
     1 ZINC000151820600        1 TEMP              0 ****  ****    0 ROOT


##########                                Name:    ZINC000484424341
##########                DOCK_Rotatable_Bonds:                   7
##########                         Heavy_Atoms:                  26
##########                    Molecular_Weight:             359.425
##########                DOCK_Rotatable_Bonds:                   7
##########                       Formal_Charge:          -0.0100009
##########                     HBond_Acceptors:                   7
##########                        HBond_Donors:                   1
##########                         Heavy_Atoms:                  26
##########                          Grid_Score:          -31.293598
##########                     Grid_vdw_energy:          -30.627314
##########                      Grid_es_energy:           -0.666284
##########           Internal_energy_repulsive:           19.506235

@<TRIPOS>MOLECULE
ZINC000484424341
 51 53 1 0 0
SMALL
USER_CHARGES


@<TRIPOS>ATOM
      1 C1          0.4931    1.6700   50.7912 C.3     1  ZINC000484424341    0.0300
      2 O2         -0.4423    2.2296   49.8671 O.3     1  ZINC000484424341   -0.3800
      3 C3         -1.4225    1.3013   49.3983 C.3     1  ZINC000484424341    0.1300
      4 H4         -1.3087    0.3550   49.9270 H       1  ZINC000484424341    0.0700
      5 C5         -1.2321    1.0732   47.8975 C.3     1  ZINC000484424341   -0.1700
      6 C6         -2.8007    1.8556   49.6514 C.ar    1  ZINC000484424341   -0.0700
      7 C7         -3.0469    3.2041   49.4700 C.ar    1  ZINC000484424341   -0.1000
      8 C8         -4.3104    3.7170   49.7011 C.ar    1  ZINC000484424341   -0.1000
      9 C9         -5.3307    2.8835   50.1140 C.ar    1  ZINC000484424341   -0.1100
     10 C10        -5.0870    1.5278   50.2972 C.ar    1  ZINC000484424341    0.1400
     11 N11        -6.1173    0.6813   50.7144 N.am    1  ZINC000484424341   -0.6400
     12 C12        -6.3908    0.5491   52.0275 C.2     1  ZINC000484424341    0.5100
     13 O13        -5.7423    1.1655   52.8476 O.2     1  ZINC000484424341   -0.4900
     14 C14        -7.4922   -0.3557   52.4735 C.2     1  ZINC000484424341    0.5200
     15 O15        -7.8943   -1.2316   51.7358 O.2     1  ZINC000484424341   -0.5200
     16 N16        -8.0395   -0.1997   53.6952 N.am    1  ZINC000484424341   -0.5800
     17 C17        -7.6503    0.8151   54.6853 C.3     1  ZINC000484424341    0.1100
     18 C18        -8.5640    0.6296   55.9150 C.3     1  ZINC000484424341   -0.1500
     19 C19        -9.7931   -0.1118   55.3260 C.3     1  ZINC000484424341    0.1500
     20 H20       -10.4881    0.5896   54.8642 H       1  ZINC000484424341    0.1100
     21 N21       -10.4645   -0.9130   56.3524 N.am    1  ZINC000484424341   -0.6100
     22 C22       -11.1926   -2.1591   56.0855 C.3     1  ZINC000484424341    0.1000
     23 C23       -11.3383   -2.8533   57.4577 C.3     1  ZINC000484424341   -0.1300
     24 C24       -11.2635   -1.6519   58.4284 C.3     1  ZINC000484424341   -0.1600
     25 C25       -10.4881   -0.6043   57.6605 C.2     1  ZINC000484424341    0.5200
     26 O26        -9.9695    0.3755   58.1524 O.2     1  ZINC000484424341   -0.5200
     27 C27        -9.1320   -1.0143   54.2577 C.3     1  ZINC000484424341    0.0900
     28 C28        -3.8182    1.0150   50.0588 C.ar    1  ZINC000484424341   -0.1300
     29 H29         1.0292    0.8499   50.3137 H       1  ZINC000484424341    0.0400
     30 H30         1.2030    2.4377   51.0992 H       1  ZINC000484424341    0.0900
     31 H31        -0.0396    1.2958   51.6655 H       1  ZINC000484424341    0.0400
     32 H32        -1.3459    2.0195   47.3688 H       1  ZINC000484424341    0.0700
     33 H33        -0.2352    0.6723   47.7145 H       1  ZINC000484424341    0.0600
     34 H34        -1.9798    0.3651   47.5399 H       1  ZINC000484424341    0.0700
     35 H35        -2.2505    3.8585   49.1476 H       1  ZINC000484424341    0.1300
     36 H36        -4.4990    4.7709   49.5589 H       1  ZINC000484424341    0.1300
     37 H37        -6.3170    3.2846   50.2946 H       1  ZINC000484424341    0.1300
     38 H38        -6.6357    0.1887   50.0590 H       1  ZINC000484424341    0.4200
     39 H39        -6.6085    0.6722   54.9725 H       1  ZINC000484424341    0.0800
     40 H40        -7.7884    1.8125   54.2678 H       1  ZINC000484424341    0.0800
     41 H41        -8.0721    0.0194   56.6725 H       1  ZINC000484424341    0.0900
     42 H42        -8.8571    1.5954   56.3268 H       1  ZINC000484424341    0.0900
     43 H43       -12.1750   -1.9398   55.6675 H       1  ZINC000484424341    0.0800
     44 H44       -10.6234   -2.7895   55.4024 H       1  ZINC000484424341    0.0800
     45 H45       -12.2997   -3.3605   57.5382 H       1  ZINC000484424341    0.0900
     46 H46       -10.5167   -3.5479   57.6327 H       1  ZINC000484424341    0.0800
     47 H47       -12.2641   -1.2922   58.6679 H       1  ZINC000484424341    0.1100
     48 H48       -10.7289   -1.9284   59.3371 H       1  ZINC000484424341    0.1000
     49 H49        -9.8528   -1.2754   53.4828 H       1  ZINC000484424341    0.0900
     50 H50        -8.7274   -1.9149   54.7196 H       1  ZINC000484424341    0.0900
     51 H51        -3.6254   -0.0382   50.1998 H       1  ZINC000484424341    0.1300
@<TRIPOS>BOND
     1     1     2    1
     2     1    29    1
     3     1    30    1
     4     1    31    1
     5     2     3    1
     6     3     4    1
     7     3     5    1
     8     3     6    1
     9     5    32    1
    10     5    33    1
    11     5    34    1
    12     6    28   ar
    13     6     7   ar
    14     7     8   ar
    15     7    35    1
    16     8     9   ar
    17     8    36    1
    18     9    10   ar
    19     9    37    1
    20    10    11    1
    21    10    28   ar
    22    11    12   am
    23    11    38    1
    24    12    13    2
    25    12    14    1
    26    14    15    2
    27    14    16   am
    28    16    27    1
    29    16    17    1
    30    17    18    1
    31    17    39    1
    32    17    40    1
    33    18    19    1
    34    18    41    1
    35    18    42    1
    36    19    20    1
    37    19    21    1
    38    19    27    1
    39    21    25   am
    40    21    22    1
    41    22    23    1
    42    22    43    1
    43    22    44    1
    44    23    24    1
    45    23    45    1
    46    23    46    1
    47    24    25    1
    48    24    47    1
    49    24    48    1
    50    25    26    2
    51    27    49    1
    52    27    50    1
    53    28    51    1
@<TRIPOS>SUBSTRUCTURE
     1 ZINC000484424341        1 TEMP              0 ****  ****    0 ROOT


##########                                Name:    ZINC001757264545
##########                DOCK_Rotatable_Bonds:                  11
##########                         Heavy_Atoms:                  25
##########                    Molecular_Weight:             344.497
##########                DOCK_Rotatable_Bonds:                  11
##########                       Formal_Charge:          0.00999946
##########                     HBond_Acceptors:                   4
##########                        HBond_Donors:                   2
##########                         Heavy_Atoms:                  25
##########                          Grid_Score:          -31.284872
##########                     Grid_vdw_energy:          -30.572954
##########                      Grid_es_energy:           -0.711917
##########           Internal_energy_repulsive:            6.349592

@<TRIPOS>MOLECULE
ZINC001757264545
 57 57 1 0 0
SMALL
USER_CHARGES


@<TRIPOS>ATOM
      1 C1         -7.5291   -0.6804   67.4586 C.1     1  ZINC001757264545   -0.2100
      2 C2         -7.4822   -0.3144   66.3441 C.1     1  ZINC001757264545   -0.1900
      3 C3         -7.4234    0.1445   64.9467 C.3     1  ZINC001757264545   -0.0100
      4 C4         -8.7797   -0.0856   64.2769 C.3     1  ZINC001757264545   -0.1200
      5 C5         -8.9592    0.9137   63.1324 C.3     1  ZINC001757264545   -0.1200
      6 C6        -10.3156    0.6841   62.4629 C.3     1  ZINC001757264545   -0.1000
      7 C7        -10.1099    0.4266   60.9688 C.3     1  ZINC001757264545   -0.1400
      8 C8        -11.4040   -0.0455   60.3576 C.2     1  ZINC001757264545    0.5100
      9 O9        -12.3717    0.6855   60.3465 O.2     1  ZINC001757264545   -0.5400
     10 N10       -11.4859   -1.2802   59.8232 N.am    1  ZINC001757264545   -0.7300
     11 C11       -12.7444   -1.7398   59.2307 C.3     1  ZINC001757264545    0.1400
     12 H12       -13.3686   -0.8791   58.9903 H       1  ZINC001757264545    0.1000
     13 C13       -13.4784   -2.6397   60.2267 C.3     1  ZINC001757264545   -0.1300
     14 C14       -14.7928   -3.1198   59.6078 C.3     1  ZINC001757264545   -0.1200
     15 C15       -14.4970   -3.9079   58.3302 C.3     1  ZINC001757264545   -0.1200
     16 C16       -13.7630   -3.0079   57.3342 C.3     1  ZINC001757264545   -0.1300
     17 C17       -12.4486   -2.5280   57.9531 C.3     1  ZINC001757264545    0.1400
     18 H18       -11.8246   -3.3886   58.1934 H       1  ZINC001757264545    0.1000
     19 N19       -11.7458   -1.6662   56.9994 N.am    1  ZINC001757264545   -0.7200
     20 C20       -10.8029   -2.1865   56.1890 C.2     1  ZINC001757264545    0.6400
     21 O21       -10.5366   -3.3716   56.2484 O.2     1  ZINC001757264545   -0.5200
     22 C22       -10.1147   -1.3437   55.2579 C.1     1  ZINC001757264545   -0.2300
     23 C23        -9.5504   -0.6529   54.4946 C.1     1  ZINC001757264545   -0.0500
     24 C24        -8.8429    0.2133   53.5375 C.3     1  ZINC001757264545    0.0300
     25 C25        -7.9830   -0.6473   52.6099 C.3     1  ZINC001757264545   -0.1400
     26 C26        -9.8626    0.9957   52.7076 C.3     1  ZINC001757264545   -0.1400
     27 C27        -7.9478    1.1919   54.3006 C.3     1  ZINC001757264545   -0.1400
     28 H28        -7.5711   -1.0078   68.4554 H       1  ZINC001757264545    0.2200
     29 H29        -6.6550   -0.4144   64.4128 H       1  ZINC001757264545    0.0900
     30 H30        -7.1822    1.2072   64.9232 H       1  ZINC001757264545    0.0900
     31 H31        -9.5749    0.0540   65.0091 H       1  ZINC001757264545    0.0700
     32 H32        -8.8226   -1.1009   63.8828 H       1  ZINC001757264545    0.0700
     33 H33        -8.1642    0.7739   62.3998 H       1  ZINC001757264545    0.0700
     34 H34        -8.9157    1.9291   63.5264 H       1  ZINC001757264545    0.0700
     35 H35       -10.9410    1.5668   62.5968 H       1  ZINC001757264545    0.0700
     36 H36       -10.8032   -0.1788   62.9165 H       1  ZINC001757264545    0.0700
     37 H37        -9.3443   -0.3373   60.8337 H       1  ZINC001757264545    0.0900
     38 H38        -9.7931    1.3487   60.4816 H       1  ZINC001757264545    0.0900
     39 H39       -10.7116   -1.8644   59.8311 H       1  ZINC001757264545    0.4000
     40 H40       -12.8543   -3.5004   60.4671 H       1  ZINC001757264545    0.0700
     41 H41       -13.6892   -2.0782   61.1369 H       1  ZINC001757264545    0.0800
     42 H42       -15.3157   -3.7610   60.3174 H       1  ZINC001757264545    0.0700
     43 H43       -15.4169   -2.2591   59.3674 H       1  ZINC001757264545    0.0700
     44 H44       -15.4333   -4.2500   57.8894 H       1  ZINC001757264545    0.0700
     45 H45       -13.8729   -4.7686   58.5705 H       1  ZINC001757264545    0.0700
     46 H46       -14.3871   -2.1472   57.0938 H       1  ZINC001757264545    0.0700
     47 H47       -13.5523   -3.5695   56.4240 H       1  ZINC001757264545    0.0800
     48 H48       -11.9590   -0.7211   56.9511 H       1  ZINC001757264545    0.4000
     49 H49        -8.6207   -1.3445   52.0663 H       1  ZINC001757264545    0.0600
     50 H50        -7.4591   -0.0059   51.9012 H       1  ZINC001757264545    0.0700
     51 H51        -7.2566   -1.2048   53.2012 H       1  ZINC001757264545    0.0600
     52 H52       -10.4753    1.6089   53.3685 H       1  ZINC001757264545    0.0600
     53 H53        -9.3388    1.6372   51.9989 H       1  ZINC001757264545    0.0700
     54 H54       -10.5003    0.2986   52.1640 H       1  ZINC001757264545    0.0600
     55 H55        -7.2214    0.6344   54.8919 H       1  ZINC001757264545    0.0600
     56 H56        -7.4240    1.8334   53.5919 H       1  ZINC001757264545    0.0700
     57 H57        -8.5605    1.8050   54.9615 H       1  ZINC001757264545    0.0600
@<TRIPOS>BOND
     1     1     2    3
     2     1    28    1
     3     2     3    1
     4     3     4    1
     5     3    29    1
     6     3    30    1
     7     4     5    1
     8     4    31    1
     9     4    32    1
    10     5     6    1
    11     5    33    1
    12     5    34    1
    13     6     7    1
    14     6    35    1
    15     6    36    1
    16     7     8    1
    17     7    37    1
    18     7    38    1
    19     8     9    2
    20     8    10   am
    21    10    11    1
    22    10    39    1
    23    11    12    1
    24    11    17    1
    25    11    13    1
    26    13    14    1
    27    13    40    1
    28    13    41    1
    29    14    15    1
    30    14    42    1
    31    14    43    1
    32    15    16    1
    33    15    44    1
    34    15    45    1
    35    16    17    1
    36    16    46    1
    37    16    47    1
    38    17    18    1
    39    17    19    1
    40    19    20   am
    41    19    48    1
    42    20    21    2
    43    20    22    1
    44    22    23    3
    45    23    24    1
    46    24    25    1
    47    24    26    1
    48    24    27    1
    49    25    49    1
    50    25    50    1
    51    25    51    1
    52    26    52    1
    53    26    53    1
    54    26    54    1
    55    27    55    1
    56    27    56    1
    57    27    57    1
@<TRIPOS>SUBSTRUCTURE
     1 ZINC001757264545        1 TEMP              0 ****  ****    0 ROOT


##########                                Name:    ZINC001248546333
##########                DOCK_Rotatable_Bonds:                   6
##########                         Heavy_Atoms:                  27
##########                    Molecular_Weight:             378.397
##########                DOCK_Rotatable_Bonds:                   6
##########                       Formal_Charge:         3.94881e-07
##########                     HBond_Acceptors:                   8
##########                        HBond_Donors:                   1
##########                         Heavy_Atoms:                  27
##########                          Grid_Score:          -31.267534
##########                     Grid_vdw_energy:          -30.969204
##########                      Grid_es_energy:           -0.298331
##########           Internal_energy_repulsive:           17.793396

@<TRIPOS>MOLECULE
ZINC001248546333
 48 50 1 0 0
SMALL
USER_CHARGES


@<TRIPOS>ATOM
      1 C1         -5.0873    2.8152   51.9597 C.3     1  ZINC001248546333   -0.1200
      2 C2         -5.8886    1.5399   51.9074 C.ar    1  ZINC001248546333   -0.0800
      3 C3         -5.7186    0.6608   50.8532 C.ar    1  ZINC001248546333   -0.1200
      4 C4         -6.4504   -0.5122   50.7978 C.ar    1  ZINC001248546333   -0.1100
      5 C5         -7.3549   -0.8121   51.7954 C.ar    1  ZINC001248546333   -0.1100
      6 C6         -7.5308    0.0704   52.8620 C.ar    1  ZINC001248546333   -0.0600
      7 C7         -8.4982   -0.2447   53.9344 C.2     1  ZINC001248546333   -0.0600
      8 C8         -9.5459   -0.9674   53.6199 C.2     1  ZINC001248546333   -0.1700
      9 C9        -10.6162   -1.3471   54.6052 C.3     1  ZINC001248546333    0.1500
     10 N10       -10.1606   -1.0170   55.9632 N.am    1  ZINC001248546333   -0.6300
     11 C11       -10.3484   -1.8677   56.9916 C.2     1  ZINC001248546333    0.7200
     12 O12        -9.9616   -1.5700   58.1051 O.2     1  ZINC001248546333   -0.5800
     13 N13       -10.9648   -3.0485   56.7856 N.am    1  ZINC001248546333   -0.7500
     14 C14       -11.1688   -3.9731   57.9034 C.3     1  ZINC001248546333    0.2000
     15 C15       -12.4369   -3.6088   58.6315 C.2     1  ZINC001248546333    0.0700
     16 C16       -12.5490   -2.7126   59.6391 C.2     1  ZINC001248546333   -0.2000
     17 C17       -13.8909   -2.6723   60.0320 C.2     1  ZINC001248546333   -0.0200
     18 C18       -14.4662   -1.8079   61.1241 C.3     1  ZINC001248546333    0.5600
     19 F19       -15.8019   -1.5130   60.8306 F       1  ZINC001248546333   -0.1700
     20 F20       -14.3962   -2.4895   62.3438 F       1  ZINC001248546333   -0.1700
     21 F21       -13.7346   -0.6187   61.2119 F       1  ZINC001248546333   -0.1600
     22 N22       -14.5603   -3.5140   59.2870 N.2     1  ZINC001248546333   -0.2200
     23 N23       -13.6652   -4.1137   58.3916 N.pl3   1  ZINC001248546333   -0.3400
     24 C24       -14.0016   -5.1181   57.3795 C.3     1  ZINC001248546333    0.0900
     25 C25        -9.4910    0.2810   56.1552 C.3     1  ZINC001248546333    0.1300
     26 C26        -8.2122    0.2788   55.3104 C.3     1  ZINC001248546333   -0.1000
     27 C27        -6.7862    1.2491   52.9144 C.ar    1  ZINC001248546333   -0.1100
     28 H28        -4.1533    2.6358   52.4921 H       1  ZINC001248546333    0.0700
     29 H29        -4.8689    3.1489   50.9453 H       1  ZINC001248546333    0.0700
     30 H30        -5.6601    3.5832   52.4795 H       1  ZINC001248546333    0.0700
     31 H31        -5.0118    0.8910   50.0697 H       1  ZINC001248546333    0.1200
     32 H32        -6.3136   -1.1942   49.9717 H       1  ZINC001248546333    0.1200
     33 H33        -7.9257   -1.7279   51.7509 H       1  ZINC001248546333    0.1200
     34 H34        -9.6455   -1.3077   52.5997 H       1  ZINC001248546333    0.1200
     35 H35       -11.5287   -0.7942   54.3826 H       1  ZINC001248546333    0.0800
     36 H36       -10.8115   -2.4173   54.5364 H       1  ZINC001248546333    0.0800
     37 H37       -11.2734   -3.2860   55.8971 H       1  ZINC001248546333    0.4000
     38 H38       -11.2482   -4.9914   57.5226 H       1  ZINC001248546333    0.1000
     39 H39       -10.3241   -3.9065   58.5889 H       1  ZINC001248546333    0.0900
     40 H40       -11.7445   -2.1315   60.0650 H       1  ZINC001248546333    0.1700
     41 H41       -14.2667   -4.6198   56.4470 H       1  ZINC001248546333    0.0900
     42 H42       -13.1424   -5.7678   57.2129 H       1  ZINC001248546333    0.1000
     43 H43       -14.8459   -5.7141   57.7258 H       1  ZINC001248546333    0.1000
     44 H44       -10.1496    1.0869   55.8312 H       1  ZINC001248546333    0.0700
     45 H45        -9.2364    0.4124   57.2068 H       1  ZINC001248546333    0.1000
     46 H46        -7.4627   -0.3488   55.7927 H       1  ZINC001248546333    0.0800
     47 H47        -7.8301    1.2966   55.2324 H       1  ZINC001248546333    0.0900
     48 H48        -6.9178    1.9362   53.7372 H       1  ZINC001248546333    0.1200
@<TRIPOS>BOND
     1     1     2    1
     2     1    28    1
     3     1    29    1
     4     1    30    1
     5     2    27   ar
     6     2     3   ar
     7     3     4   ar
     8     3    31    1
     9     4     5   ar
    10     4    32    1
    11     5     6   ar
    12     5    33    1
    13     6     7    1
    14     6    27   ar
    15     7    26    1
    16     7     8    2
    17     8     9    1
    18     8    34    1
    19     9    10    1
    20     9    35    1
    21     9    36    1
    22    10    11   am
    23    10    25    1
    24    11    12    2
    25    11    13   am
    26    13    14    1
    27    13    37    1
    28    14    15    1
    29    14    38    1
    30    14    39    1
    31    15    23    1
    32    15    16    2
    33    16    17    1
    34    16    40    1
    35    17    18    1
    36    17    22    2
    37    18    19    1
    38    18    20    1
    39    18    21    1
    40    22    23    1
    41    23    24    1
    42    24    41    1
    43    24    42    1
    44    24    43    1
    45    25    26    1
    46    25    44    1
    47    25    45    1
    48    26    46    1
    49    26    47    1
    50    27    48    1
@<TRIPOS>SUBSTRUCTURE
     1 ZINC001248546333        1 TEMP              0 ****  ****    0 ROOT


##########                                Name:    ZINC000054627026
##########                DOCK_Rotatable_Bonds:                   5
##########                         Heavy_Atoms:                  28
##########                    Molecular_Weight:              370.37
##########                DOCK_Rotatable_Bonds:                   5
##########                       Formal_Charge:         6.85453e-07
##########                     HBond_Acceptors:                   8
##########                        HBond_Donors:                   2
##########                         Heavy_Atoms:                  28
##########                          Grid_Score:          -31.243340
##########                     Grid_vdw_energy:          -31.067997
##########                      Grid_es_energy:           -0.175342
##########           Internal_energy_repulsive:            4.946571

@<TRIPOS>MOLECULE
ZINC000054627026
 42 46 1 0 0
SMALL
USER_CHARGES


@<TRIPOS>ATOM
      1 O1         -7.5700    0.3878   54.4844 O.2     1  ZINC000054627026   -0.5200
      2 C2         -8.6396    0.0258   54.0331 C.2     1  ZINC000054627026    0.6100
      3 N3         -8.9520    0.2871   52.7483 N.am    1  ZINC000054627026   -0.6500
      4 C4         -8.0473    0.9806   51.9347 C.ar    1  ZINC000054627026    0.1400
      5 C5         -8.3532    2.2685   51.5002 C.ar    1  ZINC000054627026   -0.0900
      6 C6         -7.4712    2.9622   50.6992 C.ar    1  ZINC000054627026   -0.0900
      7 C7         -6.2711    2.3776   50.3217 C.ar    1  ZINC000054627026    0.0500
      8 N8         -5.2038    2.7979   49.5473 N.pl3   1  ZINC000054627026   -0.5900
      9 C9         -4.2903    1.7758   49.5285 C.2     1  ZINC000054627026    0.3700
     10 C10        -3.0032    1.8038   48.8183 C.2     1  ZINC000054627026    0.0200
     11 C11        -1.8872    1.0975   49.1556 C.2     1  ZINC000054627026   -0.1200
     12 C12        -0.8993    1.4253   48.2095 C.2     1  ZINC000054627026   -0.2200
     13 C13        -1.4515    2.3059   47.3491 C.2     1  ZINC000054627026   -0.0100
     14 O14        -2.7225    2.5281   47.7165 O.3     1  ZINC000054627026   -0.1700
     15 N15        -4.7389    0.7676   50.2416 N.2     1  ZINC000054627026   -0.4600
     16 C16        -5.9537    1.0778   50.7556 C.ar    1  ZINC000054627026    0.0700
     17 C17        -6.8535    0.3855   51.5720 C.ar    1  ZINC000054627026   -0.0900
     18 C18        -9.5924   -0.7045   54.8899 C.2     1  ZINC000054627026   -0.1000
     19 C19        -9.4652   -0.9047   56.2354 C.2     1  ZINC000054627026    0.1000
     20 N20       -10.5456   -1.6142   56.6283 N.pl3   1  ZINC000054627026   -0.3100
     21 C21       -10.8336   -2.0469   57.9305 C.ar    1  ZINC000054627026    0.1300
     22 C22       -12.0149   -2.7278   58.1919 C.ar    1  ZINC000054627026   -0.1200
     23 C23       -12.2956   -3.1533   59.4756 C.ar    1  ZINC000054627026   -0.1000
     24 C24       -11.4016   -2.9014   60.5000 C.ar    1  ZINC000054627026   -0.1100
     25 C25       -10.2244   -2.2231   60.2428 C.ar    1  ZINC000054627026   -0.1000
     26 C26        -9.9354   -1.8006   58.9600 C.ar    1  ZINC000054627026   -0.1000
     27 N27       -11.3238   -1.8339   55.4828 N.2     1  ZINC000054627026   -0.0500
     28 N28       -10.7358   -1.2806   54.4799 N.2     1  ZINC000054627026   -0.2000
     29 H29        -9.8035   -0.0053   52.3871 H       1  ZINC000054627026    0.4200
     30 H30        -9.2869    2.7259   51.7922 H       1  ZINC000054627026    0.1500
     31 H31        -7.7146    3.9602   50.3655 H       1  ZINC000054627026    0.1300
     32 H32        -5.1184    3.6549   49.1010 H       1  ZINC000054627026    0.4300
     33 H33        -1.7816    0.4180   49.9885 H       1  ZINC000054627026    0.1600
     34 H34         0.1108    1.0444   48.1779 H       1  ZINC000054627026    0.1600
     35 H35        -0.9534    2.7550   46.5025 H       1  ZINC000054627026    0.2100
     36 H36        -6.6180   -0.6111   51.9155 H       1  ZINC000054627026    0.1400
     37 H37        -8.6565   -0.5621   56.8638 H       1  ZINC000054627026    0.2100
     38 H38       -12.7139   -2.9242   57.3924 H       1  ZINC000054627026    0.1400
     39 H39       -13.2145   -3.6829   59.6795 H       1  ZINC000054627026    0.1400
     40 H40       -11.6234   -3.2348   61.5030 H       1  ZINC000054627026    0.1400
     41 H41        -9.5283   -2.0276   61.0450 H       1  ZINC000054627026    0.1400
     42 H42        -9.0157   -1.2708   58.7597 H       1  ZINC000054627026    0.1400
@<TRIPOS>BOND
     1     1     2    2
     2     2     3   am
     3     2    18    1
     4     3     4    1
     5     3    29    1
     6     4    17   ar
     7     4     5   ar
     8     5     6   ar
     9     5    30    1
    10     6     7   ar
    11     6    31    1
    12     7    16   ar
    13     7     8    1
    14     8     9    1
    15     8    32    1
    16     9    10    1
    17     9    15    2
    18    10    14    1
    19    10    11    2
    20    11    12    1
    21    11    33    1
    22    12    13    2
    23    12    34    1
    24    13    14    1
    25    13    35    1
    26    15    16    1
    27    16    17   ar
    28    17    36    1
    29    18    28    1
    30    18    19    2
    31    19    20    1
    32    19    37    1
    33    20    21    1
    34    20    27    1
    35    21    26   ar
    36    21    22   ar
    37    22    23   ar
    38    22    38    1
    39    23    24   ar
    40    23    39    1
    41    24    25   ar
    42    24    40    1
    43    25    26   ar
    44    25    41    1
    45    26    42    1
    46    27    28    2
@<TRIPOS>SUBSTRUCTURE
     1 ZINC000054627026        1 TEMP              0 ****  ****    0 ROOT


##########                                Name:    ZINC001271977984
##########                DOCK_Rotatable_Bonds:                   7
##########                         Heavy_Atoms:                  24
##########                    Molecular_Weight:             328.371
##########                DOCK_Rotatable_Bonds:                   7
##########                       Formal_Charge:           0.0200001
##########                     HBond_Acceptors:                   7
##########                        HBond_Donors:                   0
##########                         Heavy_Atoms:                  24
##########                          Grid_Score:          -31.239079
##########                     Grid_vdw_energy:          -30.334166
##########                      Grid_es_energy:           -0.904914
##########           Internal_energy_repulsive:           22.224636

@<TRIPOS>MOLECULE
ZINC001271977984
 44 46 1 0 0
SMALL
USER_CHARGES


@<TRIPOS>ATOM
      1 C1         -0.4412    3.1087   49.0938 C.3     1  ZINC001271977984   -0.1800
      2 C2         -1.6524    2.6999   48.2530 C.3     1  ZINC001271977984    0.1700
      3 H3         -2.2535    3.5811   48.0293 H       1  ZINC001271977984    0.1100
      4 C4         -1.1820    2.0728   46.9660 C.2     1  ZINC001271977984    0.2700
      5 N5         -1.9363    1.4035   46.1471 N.2     1  ZINC001271977984   -0.4700
      6 C6         -1.1802    0.9870   45.0954 C.ar    1  ZINC001271977984    0.0200
      7 C7         -1.4516    0.2478   43.9433 C.ar    1  ZINC001271977984   -0.0600
      8 C8         -0.4403   -0.0141   43.0459 C.ar    1  ZINC001271977984   -0.1200
      9 C9          0.8447    0.4520   43.2803 C.ar    1  ZINC001271977984   -0.0900
     10 C10         1.1274    1.1836   44.4152 C.ar    1  ZINC001271977984   -0.0900
     11 C11         0.1215    1.4569   45.3290 C.ar    1  ZINC001271977984    0.0100
     12 O12         0.0752    2.1309   46.4992 O.3     1  ZINC001271977984   -0.2100
     13 N13        -2.4638    1.7309   49.0020 N.3     1  ZINC001271977984   -0.5300
     14 C14        -1.6387    0.6160   49.4859 C.3     1  ZINC001271977984    0.0000
     15 C15        -3.1710    2.3830   50.1121 C.3     1  ZINC001271977984    0.0400
     16 C16        -4.6693    2.4283   49.8058 C.3     1  ZINC001271977984    0.1200
     17 N17        -5.4244    2.0583   51.0056 N.am    1  ZINC001271977984   -0.6000
     18 C18        -5.0844    2.6573   52.2986 C.3     1  ZINC001271977984    0.0800
     19 C19        -6.4318    1.1671   50.9198 C.2     1  ZINC001271977984    0.6000
     20 O20        -6.7140    0.6700   49.8464 O.2     1  ZINC001271977984   -0.5300
     21 C21        -7.1915    0.7950   52.1270 C.2     1  ZINC001271977984   -0.0800
     22 C22        -7.3019   -0.4522   52.6603 C.2     1  ZINC001271977984    0.0200
     23 O23        -8.0789   -0.3446   53.7499 O.3     1  ZINC001271977984   -0.2000
     24 C24        -8.4382    0.9400   53.8834 C.2     1  ZINC001271977984    0.1800
     25 N25        -7.9097    1.6348   52.9211 N.2     1  ZINC001271977984   -0.4600
     26 H26        -0.7815    3.5623   50.0246 H       1  ZINC001271977984    0.0800
     27 H27         0.1599    2.2274   49.3174 H       1  ZINC001271977984    0.0800
     28 H28         0.1608    3.8277   48.5381 H       1  ZINC001271977984    0.0700
     29 H29        -2.4505   -0.1176   43.7563 H       1  ZINC001271977984    0.1400
     30 H30        -0.6491   -0.5863   42.1540 H       1  ZINC001271977984    0.1400
     31 H31         1.6297    0.2404   42.5694 H       1  ZINC001271977984    0.1400
     32 H32         2.1305    1.5432   44.5910 H       1  ZINC001271977984    0.1400
     33 H33        -0.8581    1.0000   50.1427 H       1  ZINC001271977984    0.0300
     34 H34        -2.2641   -0.0864   50.0368 H       1  ZINC001271977984    0.0700
     35 H35        -1.1816    0.1072   48.6372 H       1  ZINC001271977984    0.1100
     36 H36        -3.0047    1.8192   51.0301 H       1  ZINC001271977984    0.0500
     37 H37        -2.7947    3.3985   50.2362 H       1  ZINC001271977984    0.0800
     38 H38        -4.9470    3.4363   49.4982 H       1  ZINC001271977984    0.0900
     39 H39        -4.8973    1.7275   49.0027 H       1  ZINC001271977984    0.0900
     40 H40        -5.7273    3.5185   52.4805 H       1  ZINC001271977984    0.0600
     41 H41        -5.2303    1.9214   53.0894 H       1  ZINC001271977984    0.0900
     42 H42        -4.0425    2.9775   52.2880 H       1  ZINC001271977984    0.0700
     43 H43        -6.8506   -1.3564   52.2795 H       1  ZINC001271977984    0.2300
     44 H44        -9.0651    1.3354   54.6689 H       1  ZINC001271977984    0.2600
@<TRIPOS>BOND
     1     1     2    1
     2     1    26    1
     3     1    27    1
     4     1    28    1
     5     2     3    1
     6     2     4    1
     7     2    13    1
     8     4    12    1
     9     4     5    2
    10     5     6    1
    11     6    11   ar
    12     6     7   ar
    13     7     8   ar
    14     7    29    1
    15     8     9   ar
    16     8    30    1
    17     9    10   ar
    18     9    31    1
    19    10    11   ar
    20    10    32    1
    21    11    12    1
    22    13    14    1
    23    13    15    1
    24    14    33    1
    25    14    34    1
    26    14    35    1
    27    15    16    1
    28    15    36    1
    29    15    37    1
    30    16    17    1
    31    16    38    1
    32    16    39    1
    33    17    18    1
    34    17    19   am
    35    18    40    1
    36    18    41    1
    37    18    42    1
    38    19    20    2
    39    19    21    1
    40    21    25    1
    41    21    22    2
    42    22    23    1
    43    22    43    1
    44    23    24    1
    45    24    25    2
    46    24    44    1
@<TRIPOS>SUBSTRUCTURE
     1 ZINC001271977984        1 TEMP              0 ****  ****    0 ROOT


##########                                Name:    ZINC000011972961
##########                DOCK_Rotatable_Bonds:                   6
##########                         Heavy_Atoms:                  28
##########                    Molecular_Weight:             397.501
##########                DOCK_Rotatable_Bonds:                   6
##########                       Formal_Charge:                   0
##########                     HBond_Acceptors:                   8
##########                        HBond_Donors:                   1
##########                         Heavy_Atoms:                  28
##########                          Grid_Score:          -31.232302
##########                     Grid_vdw_energy:          -31.232302
##########                      Grid_es_energy:            0.000000
##########           Internal_energy_repulsive:           26.138809

@<TRIPOS>MOLECULE
ZINC000011972961
 51 54 1 0 0
SMALL
USER_CHARGES


@<TRIPOS>ATOM
      1 C1        -10.8404   -2.0669   55.8110 C.3               0.0000
      2 C2        -10.3845   -2.0345   57.2470 C.2               0.0000
      3 C3        -10.7824   -2.9461   58.1435 C.2               0.0000
      4 C4        -11.6887   -4.0636   57.8524 C.2               0.0000
      5 O5        -11.2368   -5.1396   57.5078 O.2               0.0000
      6 N6        -13.0213   -3.8979   57.9667 N.am              0.0000
      7 C7        -13.9258   -5.0132   57.6761 C.3               0.0000
      8 C8        -13.5655   -2.6025   58.3815 C.3               0.0000
      9 H9        -12.8771   -1.7990   58.1195 H                 0.0000
     10 C10       -14.9501   -2.3632   57.7317 C.3               0.0000
     11 C11       -15.9184   -2.7868   58.8654 C.3               0.0000
     12 O12       -15.2550   -2.3293   60.0634 O.3               0.0000
     13 C13       -13.8497   -2.5969   59.8960 C.3               0.0000
     14 S14       -10.0706   -2.6209   59.7147 S.3               0.0000
     15 C15        -9.2237   -1.2103   59.0941 C.ar              0.0000
     16 N16        -8.4039   -0.3384   59.6921 N.ar              0.0000
     17 C17        -7.8727    0.6602   59.0245 C.ar              0.0000
     18 N18        -8.1151    0.8570   57.7414 N.ar              0.0000
     19 C19        -8.9132    0.0490   57.0602 C.ar              0.0000
     20 N20        -9.1556    0.2697   55.7195 N.pl3             0.0000
     21 C21        -8.0716    0.1221   54.7452 C.3               0.0000
     22 C22        -8.3579    0.9817   53.5411 C.ar              0.0000
     23 N23        -9.6069    1.2061   53.1827 N.ar              0.0000
     24 C24        -9.9049    1.9521   52.1367 C.ar              0.0000
     25 C25       -11.3491    2.1774   51.7699 C.3               0.0000
     26 C26        -8.9083    2.5298   51.3735 C.ar              0.0000
     27 C27        -7.5826    2.3163   51.7196 C.ar              0.0000
     28 C28        -7.3084    1.5304   52.8283 C.ar              0.0000
     29 C29        -9.5127   -1.0539   57.7314 C.ar              0.0000
     30 H30        -9.9974   -2.3198   55.1678 H                 0.0000
     31 H31       -11.6235   -2.8161   55.6950 H                 0.0000
     32 H32       -11.2298   -1.0880   55.5312 H                 0.0000
     33 H33       -13.7729   -5.8054   58.4089 H                 0.0000
     34 H34       -14.9579   -4.6663   57.7258 H                 0.0000
     35 H35       -13.7194   -5.3976   56.6771 H                 0.0000
     36 H36       -15.0843   -1.3116   57.4781 H                 0.0000
     37 H37       -15.0813   -2.9938   56.8523 H                 0.0000
     38 H38       -16.8839   -2.2943   58.7495 H                 0.0000
     39 H39       -16.0385   -3.8700   58.8830 H                 0.0000
     40 H40       -13.6042   -3.5695   60.3225 H                 0.0000
     41 H41       -13.2633   -1.8178   60.3833 H                 0.0000
     42 H42        -7.2159    1.3434   59.5423 H                 0.0000
     43 H43       -10.0437    0.5225   55.4224 H                 0.0000
     44 H44        -7.1305    0.4336   55.1985 H                 0.0000
     45 H45        -7.9989   -0.9212   54.4377 H                 0.0000
     46 H46       -11.7199    3.0651   52.2822 H                 0.0000
     47 H47       -11.4325    2.3184   50.6923 H                 0.0000
     48 H48       -11.9395    1.3116   52.0698 H                 0.0000
     49 H49        -9.1587    3.1397   50.5181 H                 0.0000
     50 H50        -6.7827    2.7551   51.1415 H                 0.0000
     51 H51        -6.2876    1.3435   53.1270 H                 0.0000
@<TRIPOS>BOND
     1     1     2    1
     2     1    30    1
     3     1    31    1
     4     1    32    1
     5     2    29    1
     6     2     3    2
     7     3     4    1
     8     3    14    1
     9     4     5    2
    10     4     6   am
    11     6     7    1
    12     6     8    1
    13     7    33    1
    14     7    34    1
    15     7    35    1
    16     8     9    1
    17     8    13    1
    18     8    10    1
    19    10    11    1
    20    10    36    1
    21    10    37    1
    22    11    12    1
    23    11    38    1
    24    11    39    1
    25    12    13    1
    26    13    40    1
    27    13    41    1
    28    14    15    1
    29    15    29   ar
    30    15    16   ar
    31    16    17   ar
    32    17    18   ar
    33    17    42    1
    34    18    19   ar
    35    19    20    1
    36    19    29   ar
    37    20    21    1
    38    20    43    1
    39    21    22    1
    40    21    44    1
    41    21    45    1
    42    22    28   ar
    43    22    23   ar
    44    23    24   ar
    45    24    25    1
    46    24    26   ar
    47    25    46    1
    48    25    47    1
    49    25    48    1
    50    26    27   ar
    51    26    49    1
    52    27    28   ar
    53    27    50    1
    54    28    51    1
@<TRIPOS>SUBSTRUCTURE
     1          1 TEMP              0 ****  ****    0 ROOT


##########                                Name:    ZINC000991934963
##########                DOCK_Rotatable_Bonds:                   8
##########                         Heavy_Atoms:                  27
##########                    Molecular_Weight:             370.495
##########                DOCK_Rotatable_Bonds:                   8
##########                       Formal_Charge:          -0.0499997
##########                     HBond_Acceptors:                   6
##########                        HBond_Donors:                   1
##########                         Heavy_Atoms:                  27
##########                          Grid_Score:          -31.194504
##########                     Grid_vdw_energy:          -30.389807
##########                      Grid_es_energy:           -0.804697
##########           Internal_energy_repulsive:           18.843733

@<TRIPOS>MOLECULE
ZINC000991934963
 57 61 1 0 0
SMALL
USER_CHARGES


@<TRIPOS>ATOM
      1 C1        -16.9493    0.5879   58.4123 C.3     1  ZINC000991934963    0.0400
      2 O2        -16.6871    0.6168   59.8168 O.3     1  ZINC000991934963   -0.2900
      3 C3        -15.9686   -0.4107   60.3295 C.ar    1  ZINC000991934963    0.5000
      4 N4        -15.7100   -0.4333   61.6268 N.ar    1  ZINC000991934963   -0.5700
      5 C5        -15.0110   -1.4219   62.1604 C.ar    1  ZINC000991934963    0.1900
      6 C6        -14.5491   -2.4407   61.3427 C.ar    1  ZINC000991934963   -0.2700
      7 C7        -14.8385   -2.3850   59.9882 C.ar    1  ZINC000991934963    0.2200
      8 C8        -14.3572   -3.4703   59.0600 C.3     1  ZINC000991934963    0.1000
      9 N9        -13.4589   -2.8902   58.0527 N.3     1  ZINC000991934963   -0.4900
     10 C10       -12.9581   -3.9415   57.1116 C.3     1  ZINC000991934963    0.0400
     11 C11       -11.4022   -3.8163   57.0940 C.3     1  ZINC000991934963   -0.1400
     12 C12       -11.2146   -2.3629   57.5241 C.3     1  ZINC000991934963    0.1700
     13 N13       -11.4941   -1.4200   56.4383 N.am    1  ZINC000991934963   -0.7000
     14 C14       -10.6693   -1.3536   55.3744 C.2     1  ZINC000991934963    0.5200
     15 O15        -9.6950   -2.0735   55.3167 O.2     1  ZINC000991934963   -0.5300
     16 C16       -10.9578   -0.3849   54.2567 C.3     1  ZINC000991934963   -0.1100
     17 C17        -9.6397    0.1148   53.6618 C.3     1  ZINC000991934963   -0.1300
     18 H18        -8.8725    0.3916   54.3851 H       1  ZINC000991934963    0.1200
     19 C19        -9.7113    0.9221   52.3642 C.3     1  ZINC000991934963   -0.1700
     20 C20        -9.1761   -0.5119   52.3453 C.3     1  ZINC000991934963   -0.1200
     21 H21        -9.8103   -1.2800   51.9027 H       1  ZINC000991934963    0.1000
     22 C22        -7.6713   -0.7018   52.1439 C.3     1  ZINC000991934963   -0.1200
     23 C23        -6.9492    0.2939   51.2341 C.3     1  ZINC000991934963   -0.1800
     24 C24        -6.7394    0.3502   52.7485 C.3     1  ZINC000991934963   -0.1800
     25 C25        -9.9921   -1.9706   58.3469 C.3     1  ZINC000991934963   -0.1200
     26 C26       -10.5357   -0.7930   59.2146 C.3     1  ZINC000991934963   -0.1200
     27 C27       -12.0737   -1.0208   59.3278 C.3     1  ZINC000991934963   -0.1000
     28 C28       -12.2983   -2.3365   58.6626 C.3     1  ZINC000991934963    0.0500
     29 H29       -11.9471   -3.0921   59.3654 H       1  ZINC000991934963    0.0400
     30 N30       -15.5471   -1.3702   59.5215 N.ar    1  ZINC000991934963   -0.5000
     31 H31       -17.5104   -0.3135   58.1659 H       1  ZINC000991934963    0.0600
     32 H32       -17.5317    1.4661   58.1333 H       1  ZINC000991934963    0.1100
     33 H33       -16.0058    0.5892   57.8665 H       1  ZINC000991934963    0.0600
     34 H34       -14.8028   -1.4345   63.2201 H       1  ZINC000991934963    0.1700
     35 H35       -13.9759   -3.2598   61.7514 H       1  ZINC000991934963    0.1500
     36 H36       -13.8206   -4.2268   59.6328 H       1  ZINC000991934963    0.1000
     37 H37       -15.2120   -3.9292   58.5633 H       1  ZINC000991934963    0.0600
     38 H38       -13.2494   -4.9302   57.4663 H       1  ZINC000991934963    0.0600
     39 H39       -13.3581   -3.7698   56.1122 H       1  ZINC000991934963    0.0800
     40 H40       -10.9461   -4.4990   57.8109 H       1  ZINC000991934963    0.0800
     41 H41       -11.0072   -3.9823   56.0917 H       1  ZINC000991934963    0.0900
     42 H42       -12.2727   -0.8434   56.4850 H       1  ZINC000991934963    0.4000
     43 H43       -11.5388   -0.8861   53.4825 H       1  ZINC000991934963    0.1000
     44 H44       -11.5245    0.4608   54.6460 H       1  ZINC000991934963    0.0900
     45 H45       -10.6974    1.0972   51.9342 H       1  ZINC000991934963    0.0900
     46 H46        -8.9910    1.7298   52.2336 H       1  ZINC000991934963    0.1000
     47 H47        -7.3250   -1.7353   52.1347 H       1  ZINC000991934963    0.1000
     48 H48        -6.1275   -0.0845   50.6259 H       1  ZINC000991934963    0.0900
     49 H49        -7.5461    1.0843   50.7789 H       1  ZINC000991934963    0.0900
     50 H50        -7.1982    1.1776   53.2898 H       1  ZINC000991934963    0.0900
     51 H51        -5.7797    0.0089   53.1367 H       1  ZINC000991934963    0.0900
     52 H52        -9.6674   -2.7985   58.9772 H       1  ZINC000991934963    0.0800
     53 H53        -9.1818   -1.6336   57.7004 H       1  ZINC000991934963    0.0800
     54 H54       -10.0791   -0.8132   60.2041 H       1  ZINC000991934963    0.0700
     55 H55       -10.3319    0.1595   58.7254 H       1  ZINC000991934963    0.0700
     56 H56       -12.3767   -1.0655   60.3738 H       1  ZINC000991934963    0.0700
     57 H57       -12.6156   -0.2321   58.8060 H       1  ZINC000991934963    0.0700
@<TRIPOS>BOND
     1     1     2    1
     2     1    31    1
     3     1    32    1
     4     1    33    1
     5     2     3    1
     6     3    30   ar
     7     3     4   ar
     8     4     5   ar
     9     5     6   ar
    10     5    34    1
    11     6     7   ar
    12     6    35    1
    13     7     8    1
    14     7    30   ar
    15     8     9    1
    16     8    36    1
    17     8    37    1
    18     9    28    1
    19     9    10    1
    20    10    11    1
    21    10    38    1
    22    10    39    1
    23    11    12    1
    24    11    40    1
    25    11    41    1
    26    12    28    1
    27    12    13    1
    28    12    25    1
    29    13    14   am
    30    13    42    1
    31    14    15    2
    32    14    16    1
    33    16    17    1
    34    16    43    1
    35    16    44    1
    36    17    18    1
    37    17    20    1
    38    17    19    1
    39    19    20    1
    40    19    45    1
    41    19    46    1
    42    20    21    1
    43    20    22    1
    44    22    24    1
    45    22    23    1
    46    22    47    1
    47    23    24    1
    48    23    48    1
    49    23    49    1
    50    24    50    1
    51    24    51    1
    52    25    26    1
    53    25    52    1
    54    25    53    1
    55    26    27    1
    56    26    54    1
    57    26    55    1
    58    27    28    1
    59    27    56    1
    60    27    57    1
    61    28    29    1
@<TRIPOS>SUBSTRUCTURE
     1 ZINC000991934963        1 TEMP              0 ****  ****    0 ROOT


##########                                Name:    ZINC000266467123
##########                DOCK_Rotatable_Bonds:                   9
##########                         Heavy_Atoms:                  25
##########                    Molecular_Weight:             337.421
##########                DOCK_Rotatable_Bonds:                   9
##########                       Formal_Charge:                0.02
##########                     HBond_Acceptors:                   5
##########                        HBond_Donors:                   3
##########                         Heavy_Atoms:                  25
##########                          Grid_Score:          -31.190536
##########                     Grid_vdw_energy:          -29.786461
##########                      Grid_es_energy:           -1.404075
##########           Internal_energy_repulsive:           10.945529

@<TRIPOS>MOLECULE
ZINC000266467123
 48 50 1 0 0
SMALL
USER_CHARGES


@<TRIPOS>ATOM
      1 C1         -5.6848    2.7703   49.2595 C.3     1  <0>        -0.1600
      2 C2         -5.1367    1.7036   50.2096 C.3     1  <0>         0.1500
      3 H3         -5.1750    0.7292   49.7228 H       1  <0>         0.1200
      4 N4         -5.9482    1.6725   51.4290 N.am    1  <0>        -0.7300
      5 C5         -6.7240    0.6031   51.6952 C.2     1  <0>         0.7100
      6 O6         -6.7494   -0.3365   50.9239 O.2     1  <0>        -0.5900
      7 N7         -7.4716    0.5752   52.8161 N.am    1  <0>        -0.7100
      8 C8         -8.3137   -0.5880   53.1062 C.3     1  <0>         0.1100
      9 H9         -7.8629   -1.5584   52.8981 H       1  <0>         0.1400
     10 C10        -9.8196   -0.4450   52.8768 C.3     1  <0>        -0.1900
     11 C11        -9.2631   -0.4922   54.3021 C.3     1  <0>        -0.1500
     12 H12        -9.4373   -1.3995   54.8806 H       1  <0>         0.1200
     13 C13        -9.2616    0.8112   55.1034 C.3     1  <0>        -0.0500
     14 C14        -8.8406    0.5280   56.5225 C.ar    1  <0>        -0.0800
     15 C15        -7.7554    1.1892   57.0665 C.ar    1  <0>        -0.1100
     16 C16        -7.3694    0.9294   58.3682 C.ar    1  <0>        -0.1200
     17 C17        -8.0686    0.0089   59.1259 C.ar    1  <0>        -0.1200
     18 C18        -9.1545   -0.6517   58.5822 C.ar    1  <0>        -0.1200
     19 C19        -9.5433   -0.3888   57.2820 C.ar    1  <0>        -0.1200
     20 C20        -3.7094    2.0324   50.5642 C.2     1  <0>         0.5100
     21 O21        -3.4721    2.8373   51.4398 O.2     1  <0>        -0.5100
     22 N22        -2.6967    1.4320   49.9083 N.am    1  <0>        -0.6700
     23 C23        -1.3714    1.7373   50.2375 C.ar    1  <0>         0.1400
     24 C24        -0.8922    3.0296   50.0673 C.ar    1  <0>        -0.1400
     25 C25         0.4165    3.3277   50.3932 C.ar    1  <0>        -0.1000
     26 C26         1.2493    2.3410   50.8881 C.ar    1  <0>        -0.1300
     27 C27         0.7752    1.0532   51.0583 C.ar    1  <0>        -0.1000
     28 C28        -0.5343    0.7501   50.7406 C.ar    1  <0>        -0.1200
     29 H29        -5.0813    2.7935   48.3522 H       1  <0>         0.0700
     30 H30        -6.7173    2.5326   49.0030 H       1  <0>         0.0800
     31 H31        -5.6466    3.7448   49.7463 H       1  <0>         0.0700
     32 H32        -5.9269    2.4216   52.0449 H       1  <0>         0.4100
     33 H33        -7.4523    1.3253   53.4308 H       1  <0>         0.4000
     34 H34       -10.1839    0.5147   52.5101 H       1  <0>         0.1000
     35 H35       -10.3596   -1.3213   52.5182 H       1  <0>         0.1000
     36 H36        -8.5631    1.5150   54.6509 H       1  <0>         0.0800
     37 H37       -10.2633    1.2407   55.1005 H       1  <0>         0.0700
     38 H38        -7.2090    1.9084   56.4744 H       1  <0>         0.1200
     39 H39        -6.5210    1.4455   58.7929 H       1  <0>         0.1200
     40 H40        -7.7666   -0.1946   60.1427 H       1  <0>         0.1200
     41 H41        -9.7007   -1.3712   59.1741 H       1  <0>         0.1200
     42 H42       -10.3915   -0.9048   56.8571 H       1  <0>         0.1200
     43 H43        -2.8865    0.7883   49.2080 H       1  <0>         0.4100
     44 H44        -1.5420    3.8005   49.6802 H       1  <0>         0.1300
     45 H45         0.7897    4.3325   50.2610 H       1  <0>         0.1300
     46 H46         2.2723    2.5765   51.1419 H       1  <0>         0.1200
     47 H47         1.4283    0.2845   51.4443 H       1  <0>         0.1300
     48 H48        -0.9040   -0.2559   50.8737 H       1  <0>         0.1400
@<TRIPOS>BOND
     1     1     2    1
     2     1    29    1
     3     1    30    1
     4     1    31    1
     5     2     3    1
     6     2     4    1
     7     2    20    1
     8     4     5   am
     9     4    32    1
    10     5     6    2
    11     5     7   am
    12     7     8    1
    13     7    33    1
    14     8     9    1
    15     8    11    1
    16     8    10    1
    17    10    11    1
    18    10    34    1
    19    10    35    1
    20    11    12    1
    21    11    13    1
    22    13    14    1
    23    13    36    1
    24    13    37    1
    25    14    19   ar
    26    14    15   ar
    27    15    16   ar
    28    15    38    1
    29    16    17   ar
    30    16    39    1
    31    17    18   ar
    32    17    40    1
    33    18    19   ar
    34    18    41    1
    35    19    42    1
    36    20    21    2
    37    20    22   am
    38    22    23    1
    39    22    43    1
    40    23    28   ar
    41    23    24   ar
    42    24    25   ar
    43    24    44    1
    44    25    26   ar
    45    25    45    1
    46    26    27   ar
    47    26    46    1
    48    27    28   ar
    49    27    47    1
    50    28    48    1
@<TRIPOS>SUBSTRUCTURE
     1 <0>         1 TEMP              0 ****  ****    0 ROOT


##########                                Name:    ZINC001009984555
##########                DOCK_Rotatable_Bonds:                   7
##########                         Heavy_Atoms:                  23
##########                    Molecular_Weight:             338.446
##########                DOCK_Rotatable_Bonds:                   7
##########                       Formal_Charge:           0.0400002
##########                     HBond_Acceptors:                   6
##########                        HBond_Donors:                   1
##########                         Heavy_Atoms:                  23
##########                          Grid_Score:          -31.180706
##########                     Grid_vdw_energy:          -30.940868
##########                      Grid_es_energy:           -0.239837
##########           Internal_energy_repulsive:           12.455329

@<TRIPOS>MOLECULE
ZINC001009984555
 46 47 1 0 0
SMALL
USER_CHARGES


@<TRIPOS>ATOM
      1 C1         -0.9315   -0.0210   46.4210 C.3     1  ZINC001009984555   -0.1400
      2 S2         -1.3019    0.8080   47.9914 S.3     1  ZINC001009984555   -0.1800
      3 C3         -1.5906    2.5265   47.4875 C.3     1  ZINC001009984555   -0.1300
      4 C4         -1.9247    3.3563   48.7003 C.2     1  ZINC001009984555    0.5500
      5 O5         -1.0927    4.1012   49.1733 O.2     1  ZINC001009984555   -0.5100
      6 N6         -3.1482    3.2707   49.2592 N.am    1  ZINC001009984555   -0.6100
      7 C7         -4.2465    2.4044   48.7939 C.3     1  ZINC001009984555    0.1000
      8 C8         -5.1391    2.1911   50.0420 C.3     1  ZINC001009984555   -0.1100
      9 H9         -4.7292    1.4144   50.6874 H       1  ZINC001009984555    0.1000
     10 C10        -6.5775    1.8614   49.6376 C.3     1  ZINC001009984555    0.1300
     11 N11        -7.3687    1.5759   50.8371 N.am    1  ZINC001009984555   -0.7300
     12 C12        -7.3187    0.3533   51.4021 C.2     1  ZINC001009984555    0.5600
     13 O13        -6.6161   -0.5120   50.9172 O.2     1  ZINC001009984555   -0.5200
     14 C14        -8.1185    0.0646   52.6117 C.ar    1  ZINC001009984555   -0.1200
     15 C15        -9.3532   -0.5759   52.4987 C.ar    1  ZINC001009984555   -0.0900
     16 C16       -10.0957   -0.8430   53.6306 C.ar    1  ZINC001009984555   -0.1000
     17 C17        -9.6197   -0.4772   54.8765 C.ar    1  ZINC001009984555   -0.1200
     18 C18        -8.3945    0.1592   54.9970 C.ar    1  ZINC001009984555    0.0900
     19 F19        -7.9357    0.5137   56.2172 F       1  ZINC001009984555   -0.1300
     20 C20        -7.6390    0.4265   53.8714 C.ar    1  ZINC001009984555   -0.0500
     21 C21        -6.3067    1.1184   54.0026 C.3     1  ZINC001009984555   -0.1200
     22 C22        -5.0575    3.5821   50.7247 C.3     1  ZINC001009984555   -0.1200
     23 C23        -3.6062    4.0209   50.4376 C.3     1  ZINC001009984555    0.1400
     24 H24        -3.5773    5.0896   50.2247 H       1  ZINC001009984555    0.0800
     25 C25        -2.7193    3.7069   51.6441 C.3     1  ZINC001009984555   -0.1700
     26 H26        -0.0521    0.4359   45.9676 H       1  ZINC001009984555    0.0800
     27 H27        -0.7380   -1.0778   46.6049 H       1  ZINC001009984555    0.1100
     28 H28        -1.7821    0.0806   45.7471 H       1  ZINC001009984555    0.0800
     29 H29        -0.6924    2.9217   47.0131 H       1  ZINC001009984555    0.1100
     30 H30        -2.4206    2.5637   46.7819 H       1  ZINC001009984555    0.1100
     31 H31        -4.8113    2.8992   48.0037 H       1  ZINC001009984555    0.0800
     32 H32        -3.8541    1.4508   48.4408 H       1  ZINC001009984555    0.0800
     33 H33        -7.0107    2.7116   49.1104 H       1  ZINC001009984555    0.0800
     34 H34        -6.5803    0.9890   48.9842 H       1  ZINC001009984555    0.0800
     35 H35        -7.9284    2.2668   51.2247 H       1  ZINC001009984555    0.4000
     36 H36        -9.7272   -0.8617   51.5266 H       1  ZINC001009984555    0.1300
     37 H37       -11.0513   -1.3386   53.5433 H       1  ZINC001009984555    0.1400
     38 H38       -10.2055   -0.6881   55.7591 H       1  ZINC001009984555    0.1400
     39 H39        -5.5099    0.3747   54.0064 H       1  ZINC001009984555    0.0800
     40 H40        -6.1657    1.7977   53.1619 H       1  ZINC001009984555    0.1000
     41 H41        -6.2809    1.6833   54.9345 H       1  ZINC001009984555    0.0600
     42 H42        -5.7696    4.2744   50.2757 H       1  ZINC001009984555    0.0900
     43 H43        -5.2266    3.4953   51.7980 H       1  ZINC001009984555    0.0900
     44 H44        -2.7388    2.6347   51.8401 H       1  ZINC001009984555    0.0600
     45 H45        -1.6965    4.0194   51.4343 H       1  ZINC001009984555    0.0700
     46 H46        -3.0910    4.2426   52.5175 H       1  ZINC001009984555    0.0700
@<TRIPOS>BOND
     1     1     2    1
     2     1    26    1
     3     1    27    1
     4     1    28    1
     5     2     3    1
     6     3     4    1
     7     3    29    1
     8     3    30    1
     9     4     5    2
    10     4     6   am
    11     6    23    1
    12     6     7    1
    13     7     8    1
    14     7    31    1
    15     7    32    1
    16     8     9    1
    17     8    10    1
    18     8    22    1
    19    10    11    1
    20    10    33    1
    21    10    34    1
    22    11    12   am
    23    11    35    1
    24    12    13    2
    25    12    14    1
    26    14    20   ar
    27    14    15   ar
    28    15    16   ar
    29    15    36    1
    30    16    17   ar
    31    16    37    1
    32    17    18   ar
    33    17    38    1
    34    18    19    1
    35    18    20   ar
    36    20    21    1
    37    21    39    1
    38    21    40    1
    39    21    41    1
    40    22    23    1
    41    22    42    1
    42    22    43    1
    43    23    24    1
    44    23    25    1
    45    25    44    1
    46    25    45    1
    47    25    46    1
@<TRIPOS>SUBSTRUCTURE
     1 ZINC001009984555        1 TEMP              0 ****  ****    0 ROOT


##########                                Name:    ZINC001015666108
##########                DOCK_Rotatable_Bonds:                   7
##########                         Heavy_Atoms:                  25
##########                    Molecular_Weight:             346.429
##########                DOCK_Rotatable_Bonds:                   7
##########                       Formal_Charge:          -0.0199997
##########                     HBond_Acceptors:                   7
##########                        HBond_Donors:                   1
##########                         Heavy_Atoms:                  25
##########                          Grid_Score:          -31.158527
##########                     Grid_vdw_energy:          -30.859119
##########                      Grid_es_energy:           -0.299407
##########           Internal_energy_repulsive:           14.492550

@<TRIPOS>MOLECULE
ZINC001015666108
 51 53 1 0 0
SMALL
USER_CHARGES


@<TRIPOS>ATOM
      1 C1        -13.8166   -2.2698   55.7786 C.3     1  ZINC001015666108   -0.1400
      2 C2        -12.4563   -1.6308   55.4918 C.3     1  ZINC001015666108   -0.0700
      3 C3        -12.5735   -0.7118   54.3033 C.2     1  ZINC001015666108   -0.0700
      4 C4        -11.5490   -0.2398   53.5338 C.2     1  ZINC001015666108   -0.0900
      5 C5        -10.1250   -0.5381   53.7177 C.2     1  ZINC001015666108    0.6100
      6 O6         -9.7697   -1.2812   54.6136 O.2     1  ZINC001015666108   -0.5100
      7 N7         -9.2097    0.0105   52.8944 N.am    1  ZINC001015666108   -0.7200
      8 C8         -7.7870   -0.2861   53.0792 C.3     1  ZINC001015666108    0.1400
      9 H9         -7.6348   -0.8477   54.0009 H       1  ZINC001015666108    0.1100
     10 C10        -7.2434   -1.0817   51.8702 C.3     1  ZINC001015666108   -0.1300
     11 C11        -6.5991    0.0201   50.9919 C.3     1  ZINC001015666108    0.0300
     12 N12        -5.9984    0.9420   51.9894 N.3     1  ZINC001015666108   -0.5100
     13 C13        -5.7632    2.2691   51.4051 C.3     1  ZINC001015666108    0.1700
     14 H14        -6.7097    2.6891   51.0646 H       1  ZINC001015666108    0.0900
     15 C15        -5.1475    3.1895   52.4609 C.3     1  ZINC001015666108   -0.1500
     16 C16        -4.8200    2.1436   50.2365 C.2     1  ZINC001015666108    0.1900
     17 N17        -3.7273    1.4204   50.1890 N.2     1  ZINC001015666108   -0.4800
     18 C18        -3.2166    1.6161   48.9603 C.2     1  ZINC001015666108    0.1800
     19 C19        -1.9561    1.0006   48.4098 C.3     1  ZINC001015666108    0.0000
     20 C20        -1.7190    1.5098   46.9867 C.3     1  ZINC001015666108   -0.1500
     21 C21        -0.7701    1.3894   49.2948 C.3     1  ZINC001015666108   -0.1500
     22 N22        -4.0102    2.4331   48.3347 N.2     1  ZINC001015666108   -0.3800
     23 O23        -4.9407    2.7436   49.0484 O.3     1  ZINC001015666108    0.1000
     24 C24        -6.9683    1.0179   53.1063 C.3     1  ZINC001015666108    0.0300
     25 O25       -12.0764    0.5491   52.5748 O.3     1  ZINC001015666108   -0.1700
     26 C26       -13.4076    0.5902   52.7152 C.2     1  ZINC001015666108    0.0000
     27 C27       -13.7575   -0.1799   53.7690 C.2     1  ZINC001015666108   -0.2200
     28 H28       -13.7318   -2.9345   56.6383 H       1  ZINC001015666108    0.0600
     29 H29       -14.5465   -1.4893   55.9933 H       1  ZINC001015666108    0.0600
     30 H30       -14.1406   -2.8407   54.9084 H       1  ZINC001015666108    0.0500
     31 H31       -12.1324   -1.0599   56.3620 H       1  ZINC001015666108    0.0900
     32 H32       -11.7264   -2.4113   55.2771 H       1  ZINC001015666108    0.0700
     33 H33        -9.4930    0.6019   52.1796 H       1  ZINC001015666108    0.4000
     34 H34        -6.4948   -1.8065   52.1906 H       1  ZINC001015666108    0.0900
     35 H35        -8.0557   -1.5749   51.3363 H       1  ZINC001015666108    0.0800
     36 H36        -5.8292   -0.4035   50.3469 H       1  ZINC001015666108    0.0800
     37 H37        -7.3576    0.5336   50.4012 H       1  ZINC001015666108    0.0500
     38 H38        -4.2010    2.7695   52.8015 H       1  ZINC001015666108    0.0800
     39 H39        -4.9730    4.1742   52.0274 H       1  ZINC001015666108    0.0700
     40 H40        -5.8297    3.2803   53.3061 H       1  ZINC001015666108    0.0800
     41 H41        -2.0580   -0.0846   48.3951 H       1  ZINC001015666108    0.1000
     42 H42        -1.6172    2.5949   47.0014 H       1  ZINC001015666108    0.0600
     43 H43        -0.8073    1.0646   46.5886 H       1  ZINC001015666108    0.0700
     44 H44        -2.5640    1.2328   46.3562 H       1  ZINC001015666108    0.0600
     45 H45        -0.6681    2.4745   49.3095 H       1  ZINC001015666108    0.0600
     46 H46        -0.9389    1.0265   50.3087 H       1  ZINC001015666108    0.0600
     47 H47         0.1417    0.9441   48.8967 H       1  ZINC001015666108    0.0700
     48 H48        -7.6287    1.8738   52.9671 H       1  ZINC001015666108    0.0600
     49 H49        -6.4371    1.1057   54.0541 H       1  ZINC001015666108    0.1000
     50 H50       -14.0895    1.1442   52.0872 H       1  ZINC001015666108    0.2100
     51 H51       -14.7594   -0.3491   54.1353 H       1  ZINC001015666108    0.1600
@<TRIPOS>BOND
     1     1     2    1
     2     1    28    1
     3     1    29    1
     4     1    30    1
     5     2     3    1
     6     2    31    1
     7     2    32    1
     8     3    27    1
     9     3     4    2
    10     4     5    1
    11     4    25    1
    12     5     6    2
    13     5     7   am
    14     7     8    1
    15     7    33    1
    16     8     9    1
    17     8    24    1
    18     8    10    1
    19    10    11    1
    20    10    34    1
    21    10    35    1
    22    11    12    1
    23    11    36    1
    24    11    37    1
    25    12    13    1
    26    12    24    1
    27    13    14    1
    28    13    15    1
    29    13    16    1
    30    15    38    1
    31    15    39    1
    32    15    40    1
    33    16    23    1
    34    16    17    2
    35    17    18    1
    36    18    19    1
    37    18    22    2
    38    19    20    1
    39    19    21    1
    40    19    41    1
    41    20    42    1
    42    20    43    1
    43    20    44    1
    44    21    45    1
    45    21    46    1
    46    21    47    1
    47    22    23    1
    48    24    48    1
    49    24    49    1
    50    25    26    1
    51    26    27    2
    52    26    50    1
    53    27    51    1
@<TRIPOS>SUBSTRUCTURE
     1 ZINC001015666108        1 TEMP              0 ****  ****    0 ROOT


##########                                Name:    ZINC001053792610
##########                DOCK_Rotatable_Bonds:                   5
##########                         Heavy_Atoms:                  25
##########                    Molecular_Weight:             347.374
##########                DOCK_Rotatable_Bonds:                   5
##########                       Formal_Charge:          -0.0400001
##########                     HBond_Acceptors:                   9
##########                        HBond_Donors:                   2
##########                         Heavy_Atoms:                  25
##########                          Grid_Score:          -31.131317
##########                     Grid_vdw_energy:          -28.702246
##########                      Grid_es_energy:           -2.429071
##########           Internal_energy_repulsive:            4.467176

@<TRIPOS>MOLECULE
ZINC001053792610
 46 49 1 0 0
SMALL
USER_CHARGES


@<TRIPOS>ATOM
      1 C1        -11.7335    0.1114   55.2270 C.3     1  ZINC001053792610   -0.1000
      2 C2        -10.5445   -0.0703   54.3190 C.ar    1  ZINC001053792610    0.0800
      3 C3        -10.7254   -0.5254   53.0251 C.ar    1  ZINC001053792610    0.0600
      4 N4         -9.6827   -0.6847   52.2289 N.ar    1  ZINC001053792610   -0.4200
      5 C5         -8.4676   -0.4094   52.6685 C.ar    1  ZINC001053792610    0.0800
      6 C6         -7.2787   -0.5907   51.7604 C.3     1  ZINC001053792610    0.0700
      7 N7         -6.9517    0.6903   51.1200 N.3     1  ZINC001053792610   -0.4500
      8 C8         -5.7385    0.5711   50.2876 C.3     1  ZINC001053792610   -0.0100
      9 C9         -5.3005    1.9266   50.8387 C.3     1  ZINC001053792610    0.0800
     10 C10        -6.1782    1.5556   52.0323 C.3     1  ZINC001053792610   -0.0100
     11 C11        -3.7999    2.0550   51.1440 C.3     1  ZINC001053792610   -0.1500
     12 C12        -3.3342    3.0623   50.0552 C.3     1  ZINC001053792610    0.1100
     13 H13        -2.4748    3.6396   50.3963 H       1  ZINC001053792610    0.1200
     14 N14        -3.0386    2.3773   48.7944 N.am    1  ZINC001053792610   -0.7100
     15 C15        -1.7726    2.0189   48.5028 C.2     1  ZINC001053792610    0.5000
     16 O16        -0.8781    2.2622   49.2849 O.2     1  ZINC001053792610   -0.5100
     17 C17        -1.4683    1.3158   47.2051 C.3     1  ZINC001053792610    0.0800
     18 H18        -2.3433    0.7700   46.8522 H       1  ZINC001053792610    0.1300
     19 C19        -0.9945    2.3247   46.1410 C.3     1  ZINC001053792610    0.0500
     20 O20         0.3566    1.8863   45.8163 O.3     1  ZINC001053792610   -0.3200
     21 C21         0.6622    0.8064   46.5443 C.2     1  ZINC001053792610    0.6500
     22 O22         1.7331    0.2373   46.4689 O.2     1  ZINC001053792610   -0.5100
     23 N23        -0.3227    0.4074   47.3658 N.am    1  ZINC001053792610   -0.7100
     24 C24        -4.5919    3.9589   49.9228 C.3     1  ZINC001053792610    0.0400
     25 O25        -5.7092    3.0679   50.0914 O.3     1  ZINC001053792610   -0.3300
     26 C26        -8.2866    0.0457   53.9628 C.ar    1  ZINC001053792610    0.0600
     27 N27        -9.3296    0.2102   54.7571 N.ar    1  ZINC001053792610   -0.4400
     28 H28       -12.1244    1.1227   55.1157 H       1  ZINC001053792610    0.0800
     29 H29       -12.5073   -0.6086   54.9608 H       1  ZINC001053792610    0.0800
     30 H30       -11.4286   -0.0486   56.2612 H       1  ZINC001053792610    0.0800
     31 H31       -11.7186   -0.7506   52.6660 H       1  ZINC001053792610    0.1700
     32 H32        -6.4245   -0.9335   52.3443 H       1  ZINC001053792610    0.1000
     33 H33        -7.5155   -1.3295   50.9948 H       1  ZINC001053792610    0.0600
     34 H34        -5.0864   -0.2502   50.5846 H       1  ZINC001053792610    0.0800
     35 H35        -5.9430    0.5826   49.2170 H       1  ZINC001053792610    0.0900
     36 H36        -6.7521    2.3939   52.4273 H       1  ZINC001053792610    0.1000
     37 H37        -5.6468    1.0043   52.8080 H       1  ZINC001053792610    0.0800
     38 H38        -3.6391    2.4596   52.1432 H       1  ZINC001053792610    0.1000
     39 H39        -3.2955    1.0957   51.0281 H       1  ZINC001053792610    0.1000
     40 H40        -3.7542    2.1816   48.1695 H       1  ZINC001053792610    0.4000
     41 H41        -1.6335    2.2784   45.2593 H       1  ZINC001053792610    0.1200
     42 H42        -0.9803    3.3345   46.5513 H       1  ZINC001053792610    0.1100
     43 H43        -0.2826   -0.3529   47.9670 H       1  ZINC001053792610    0.4400
     44 H44        -4.5960    4.7220   50.7011 H       1  ZINC001053792610    0.0800
     45 H45        -4.6236    4.4229   48.9370 H       1  ZINC001053792610    0.0900
     46 H46        -7.2933    0.2707   54.3222 H       1  ZINC001053792610    0.1600
@<TRIPOS>BOND
     1     1     2    1
     2     1    28    1
     3     1    29    1
     4     1    30    1
     5     2    27   ar
     6     2     3   ar
     7     3     4   ar
     8     3    31    1
     9     4     5   ar
    10     5     6    1
    11     5    26   ar
    12     6     7    1
    13     6    32    1
    14     6    33    1
    15     7    10    1
    16     7     8    1
    17     8     9    1
    18     8    34    1
    19     8    35    1
    20     9    25    1
    21     9    10    1
    22     9    11    1
    23    10    36    1
    24    10    37    1
    25    11    12    1
    26    11    38    1
    27    11    39    1
    28    12    13    1
    29    12    14    1
    30    12    24    1
    31    14    15   am
    32    14    40    1
    33    15    16    2
    34    15    17    1
    35    17    18    1
    36    17    23    1
    37    17    19    1
    38    19    20    1
    39    19    41    1
    40    19    42    1
    41    20    21    1
    42    21    22    2
    43    21    23   am
    44    23    43    1
    45    24    25    1
    46    24    44    1
    47    24    45    1
    48    26    27   ar
    49    26    46    1
@<TRIPOS>SUBSTRUCTURE
     1 ZINC001053792610        1 TEMP              0 ****  ****    0 ROOT


##########                                Name:    ZINC000151991096
##########                DOCK_Rotatable_Bonds:                   8
##########                         Heavy_Atoms:                  27
##########                    Molecular_Weight:             364.444
##########                DOCK_Rotatable_Bonds:                   8
##########                       Formal_Charge:          -0.0200004
##########                     HBond_Acceptors:                   5
##########                        HBond_Donors:                   1
##########                         Heavy_Atoms:                  27
##########                          Grid_Score:          -31.130400
##########                     Grid_vdw_energy:          -30.166973
##########                      Grid_es_energy:           -0.963426
##########           Internal_energy_repulsive:           19.250177

@<TRIPOS>MOLECULE
ZINC000151991096
 51 53 1 0 0
SMALL
USER_CHARGES


@<TRIPOS>ATOM
      1 C1         -7.0336    3.3374   50.0245 C.3     1  ZINC000151991096   -0.1500
      2 C2         -6.6383    1.9037   49.6649 C.3     1  ZINC000151991096   -0.1300
      3 C3         -5.5618    1.4129   50.6351 C.3     1  ZINC000151991096    0.1400
      4 H4         -5.2863    0.3885   50.3842 H       1  ZINC000151991096    0.1000
      5 N5         -6.0813    1.4575   52.0040 N.am    1  ZINC000151991096   -0.7200
      6 C6         -6.8840    0.4722   52.4528 C.2     1  ZINC000151991096    0.5600
      7 O7         -7.1783   -0.4529   51.7207 O.2     1  ZINC000151991096   -0.5300
      8 C8         -7.4059    0.5163   53.8327 C.ar    1  ZINC000151991096   -0.1700
      9 C9         -8.4423   -0.3383   54.2174 C.ar    1  ZINC000151991096   -0.0500
     10 C10        -8.9261   -0.2944   55.5058 C.ar    1  ZINC000151991096   -0.1600
     11 C11        -8.3850    0.5986   56.4233 C.ar    1  ZINC000151991096    0.1600
     12 O12        -8.8643    0.6386   57.6923 O.3     1  ZINC000151991096   -0.3000
     13 C13        -9.4609   -0.5572   58.1985 C.3     1  ZINC000151991096    0.0900
     14 C14        -9.5677   -0.4690   59.6991 C.ar    1  ZINC000151991096   -0.0500
     15 C15        -8.4270   -0.3794   60.4692 C.ar    1  ZINC000151991096   -0.1000
     16 C16        -8.5233   -0.2984   61.8473 C.ar    1  ZINC000151991096   -0.0900
     17 C17        -9.7625   -0.3072   62.4623 C.ar    1  ZINC000151991096   -0.1200
     18 C18       -10.9117   -0.3965   61.7040 C.ar    1  ZINC000151991096   -0.0700
     19 C19       -10.8221   -0.4723   60.3129 C.ar    1  ZINC000151991096   -0.0200
     20 C20       -12.0108   -0.5651   59.5195 C.1     1  ZINC000151991096    0.2400
     21 N21       -12.9536   -0.6388   58.8903 N.1     1  ZINC000151991096   -0.4000
     22 C22        -7.3540    1.4505   56.0446 C.ar    1  ZINC000151991096   -0.2200
     23 C23        -6.8611    1.4090   54.7595 C.ar    1  ZINC000151991096   -0.0100
     24 C24        -4.3295    2.3133   50.5275 C.3     1  ZINC000151991096    0.0700
     25 H25        -4.5978    3.3390   50.7807 H       1  ZINC000151991096    0.1000
     26 C26        -3.7650    2.2590   49.0916 C.3     1  ZINC000151991096   -0.1500
     27 C27        -2.2319    2.2622   49.3399 C.3     1  ZINC000151991096   -0.1600
     28 C28        -2.1460    1.4557   50.6600 C.3     1  ZINC000151991096    0.0500
     29 O29        -3.3069    1.8453   51.4146 O.3     1  ZINC000151991096   -0.3700
     30 H30        -6.1589    3.9840   49.9541 H       1  ZINC000151991096    0.0500
     31 H31        -7.8004    3.6870   49.3333 H       1  ZINC000151991096    0.0500
     32 H32        -7.4231    3.3625   51.0422 H       1  ZINC000151991096    0.0600
     33 H33        -7.5130    1.2571   49.7353 H       1  ZINC000151991096    0.0700
     34 H34        -6.2488    1.8786   48.6471 H       1  ZINC000151991096    0.0700
     35 H35        -5.8475    2.1962   52.5877 H       1  ZINC000151991096    0.4000
     36 H36        -8.8635   -1.0322   53.5050 H       1  ZINC000151991096    0.1300
     37 H37        -9.7274   -0.9544   55.8039 H       1  ZINC000151991096    0.1400
     38 H38       -10.4559   -0.6764   57.7698 H       1  ZINC000151991096    0.0800
     39 H39        -8.8436   -1.4139   57.9279 H       1  ZINC000151991096    0.0800
     40 H40        -7.4564   -0.3727   59.9956 H       1  ZINC000151991096    0.1400
     41 H41        -7.6268   -0.2283   62.4455 H       1  ZINC000151991096    0.1400
     42 H42        -9.8304   -0.2445   63.5383 H       1  ZINC000151991096    0.1400
     43 H43       -11.8785   -0.4037   62.1854 H       1  ZINC000151991096    0.1400
     44 H44        -6.9364    2.1432   56.7603 H       1  ZINC000151991096    0.1300
     45 H45        -6.0598    2.0710   54.4661 H       1  ZINC000151991096    0.1400
     46 H46        -4.0744    1.3434   48.5875 H       1  ZINC000151991096    0.0800
     47 H47        -4.0676    3.1379   48.5223 H       1  ZINC000151991096    0.0900
     48 H48        -1.7024    1.7541   48.5340 H       1  ZINC000151991096    0.0800
     49 H49        -1.8578    3.2771   49.4745 H       1  ZINC000151991096    0.0800
     50 H50        -2.1706    0.3860   50.4522 H       1  ZINC000151991096    0.0600
     51 H51        -1.2378    1.7154   51.2038 H       1  ZINC000151991096    0.0900
@<TRIPOS>BOND
     1     1     2    1
     2     1    30    1
     3     1    31    1
     4     1    32    1
     5     2     3    1
     6     2    33    1
     7     2    34    1
     8     3     4    1
     9     3     5    1
    10     3    24    1
    11     5     6   am
    12     5    35    1
    13     6     7    2
    14     6     8    1
    15     8    23   ar
    16     8     9   ar
    17     9    10   ar
    18     9    36    1
    19    10    11   ar
    20    10    37    1
    21    11    12    1
    22    11    22   ar
    23    12    13    1
    24    13    14    1
    25    13    38    1
    26    13    39    1
    27    14    19   ar
    28    14    15   ar
    29    15    16   ar
    30    15    40    1
    31    16    17   ar
    32    16    41    1
    33    17    18   ar
    34    17    42    1
    35    18    19   ar
    36    18    43    1
    37    19    20    1
    38    20    21    3
    39    22    23   ar
    40    22    44    1
    41    23    45    1
    42    24    25    1
    43    24    29    1
    44    24    26    1
    45    26    27    1
    46    26    46    1
    47    26    47    1
    48    27    28    1
    49    27    48    1
    50    27    49    1
    51    28    29    1
    52    28    50    1
    53    28    51    1
@<TRIPOS>SUBSTRUCTURE
     1 ZINC000151991096        1 TEMP              0 ****  ****    0 ROOT


##########                                Name:    ZINC000279331220
##########                DOCK_Rotatable_Bonds:                   9
##########                         Heavy_Atoms:                  24
##########                    Molecular_Weight:             328.411
##########                DOCK_Rotatable_Bonds:                   9
##########                       Formal_Charge:          -0.0100001
##########                     HBond_Acceptors:                   5
##########                        HBond_Donors:                   0
##########                         Heavy_Atoms:                  24
##########                          Grid_Score:          -31.114626
##########                     Grid_vdw_energy:          -30.768127
##########                      Grid_es_energy:           -0.346499
##########           Internal_energy_repulsive:           24.851145

@<TRIPOS>MOLECULE
ZINC000279331220
 48 49 1 0 0
SMALL
USER_CHARGES


@<TRIPOS>ATOM
      1 C1          1.6456    2.2967   45.0203 C.3     1  ZINC000279331220   -0.1500
      2 C2          0.4024    3.1377   45.3164 C.3     1  ZINC000279331220    0.0500
      3 O3         -0.7434    2.5168   44.7302 O.3     1  ZINC000279331220   -0.3000
      4 C4         -1.0403    1.2551   45.1415 C.ar    1  ZINC000279331220    0.1000
      5 C5         -1.0124    0.2057   44.2376 C.ar    1  ZINC000279331220   -0.1700
      6 C6         -1.3141   -1.0768   44.6575 C.ar    1  ZINC000279331220   -0.1200
      7 C7         -1.6441   -1.3151   45.9784 C.ar    1  ZINC000279331220   -0.1200
      8 C8         -1.6742   -0.2720   46.8858 C.ar    1  ZINC000279331220   -0.1700
      9 C9         -1.3670    1.0141   46.4730 C.ar    1  ZINC000279331220    0.1000
     10 O10        -1.3961    2.0410   47.3641 O.3     1  ZINC000279331220   -0.3000
     11 C11        -1.7574    1.7226   48.7094 C.3     1  ZINC000279331220    0.0600
     12 C12        -1.9992    3.0147   49.4922 C.3     1  ZINC000279331220   -0.1100
     13 C13        -3.5014    3.2967   49.5596 C.3     1  ZINC000279331220   -0.1300
     14 C14        -4.1741    2.2389   50.3959 C.2     1  ZINC000279331220    0.5200
     15 O15        -3.5061    1.4149   50.9837 O.2     1  ZINC000279331220   -0.5200
     16 N16        -5.5182    2.2084   50.4906 N.am    1  ZINC000279331220   -0.5700
     17 C17        -6.3253    3.2027   49.7792 C.3     1  ZINC000279331220    0.0800
     18 C18        -6.1404    1.2308   51.2656 C.ar    1  ZINC000279331220    0.3400
     19 N19        -6.7357    0.2068   50.6753 N.ar    1  ZINC000279331220   -0.4800
     20 C20        -7.3360   -0.7398   51.3712 C.ar    1  ZINC000279331220    0.1100
     21 C21        -7.3641   -0.6944   52.7509 C.ar    1  ZINC000279331220   -0.1600
     22 C22        -6.7511    0.3635   53.4088 C.ar    1  ZINC000279331220   -0.0700
     23 C23        -6.1250    1.3378   52.6518 C.ar    1  ZINC000279331220   -0.1200
     24 C24        -5.4455    2.5050   53.3203 C.3     1  ZINC000279331220   -0.1100
     25 H25         2.5196    2.7703   45.4675 H       1  ZINC000279331220    0.0800
     26 H26         1.5180    1.2991   45.4406 H       1  ZINC000279331220    0.0700
     27 H27         1.7851    2.2215   43.9419 H       1  ZINC000279331220    0.0700
     28 H28         0.2629    3.2129   46.3949 H       1  ZINC000279331220    0.0600
     29 H29         0.5299    4.1354   44.8962 H       1  ZINC000279331220    0.0600
     30 H30        -0.7555    0.3894   43.2048 H       1  ZINC000279331220    0.1300
     31 H31        -1.2921   -1.8940   43.9518 H       1  ZINC000279331220    0.1300
     32 H32        -1.8794   -2.3182   46.3024 H       1  ZINC000279331220    0.1300
     33 H33        -1.9330   -0.4608   47.9171 H       1  ZINC000279331220    0.1300
     34 H34        -2.6673    1.1224   48.7089 H       1  ZINC000279331220    0.0600
     35 H35        -0.9508    1.1591   49.1786 H       1  ZINC000279331220    0.0600
     36 H36        -1.6040    2.9070   50.5023 H       1  ZINC000279331220    0.0800
     37 H37        -1.4963    3.8422   48.9916 H       1  ZINC000279331220    0.0800
     38 H38        -3.6675    4.2756   50.0095 H       1  ZINC000279331220    0.1000
     39 H39        -3.9190    3.2840   48.5529 H       1  ZINC000279331220    0.1000
     40 H40        -6.4905    2.8705   48.7542 H       1  ZINC000279331220    0.0700
     41 H41        -7.2851    3.3192   50.2825 H       1  ZINC000279331220    0.0800
     42 H42        -5.8009    4.1582   49.7713 H       1  ZINC000279331220    0.0800
     43 H43        -7.8118   -1.5605   50.8551 H       1  ZINC000279331220    0.1600
     44 H44        -7.8582   -1.4735   53.3125 H       1  ZINC000279331220    0.1400
     45 H45        -6.7591    0.4222   54.4872 H       1  ZINC000279331220    0.1400
     46 H46        -4.3838    2.2880   53.4392 H       1  ZINC000279331220    0.0800
     47 H47        -5.5673    3.3969   52.7058 H       1  ZINC000279331220    0.0700
     48 H48        -5.8935    2.6742   54.2994 H       1  ZINC000279331220    0.0700
@<TRIPOS>BOND
     1     1     2    1
     2     1    25    1
     3     1    26    1
     4     1    27    1
     5     2     3    1
     6     2    28    1
     7     2    29    1
     8     3     4    1
     9     4     9   ar
    10     4     5   ar
    11     5     6   ar
    12     5    30    1
    13     6     7   ar
    14     6    31    1
    15     7     8   ar
    16     7    32    1
    17     8     9   ar
    18     8    33    1
    19     9    10    1
    20    10    11    1
    21    11    12    1
    22    11    34    1
    23    11    35    1
    24    12    13    1
    25    12    36    1
    26    12    37    1
    27    13    14    1
    28    13    38    1
    29    13    39    1
    30    14    15    2
    31    14    16   am
    32    16    17    1
    33    16    18    1
    34    17    40    1
    35    17    41    1
    36    17    42    1
    37    18    23   ar
    38    18    19   ar
    39    19    20   ar
    40    20    21   ar
    41    20    43    1
    42    21    22   ar
    43    21    44    1
    44    22    23   ar
    45    22    45    1
    46    23    24    1
    47    24    46    1
    48    24    47    1
    49    24    48    1
@<TRIPOS>SUBSTRUCTURE
     1 ZINC000279331220        1 TEMP              0 ****  ****    0 ROOT


##########                                Name:    ZINC000482910431
##########                DOCK_Rotatable_Bonds:                   7
##########                         Heavy_Atoms:                  29
##########                    Molecular_Weight:             414.867
##########                DOCK_Rotatable_Bonds:                   7
##########                       Formal_Charge:          -0.0300001
##########                     HBond_Acceptors:                   8
##########                        HBond_Donors:                   2
##########                         Heavy_Atoms:                  29
##########                          Grid_Score:          -31.114300
##########                     Grid_vdw_energy:          -31.522364
##########                      Grid_es_energy:            0.408064
##########           Internal_energy_repulsive:           14.855990

@<TRIPOS>MOLECULE
ZINC000482910431
 49 51 1 0 0
SMALL
USER_CHARGES


@<TRIPOS>ATOM
      1 C1         -1.6122    2.2208   50.5361 C.3     1  ZINC000482910431   -0.1500
      2 C2         -2.7493    2.9973   49.8691 C.3     1  ZINC000482910431    0.0800
      3 C3         -2.4541    4.4969   49.9419 C.3     1  ZINC000482910431   -0.1400
      4 C4         -2.8630    2.5875   48.4600 C.1     1  ZINC000482910431    0.2100
      5 N5         -2.9507    2.2713   47.3724 N.1     1  ZINC000482910431   -0.4300
      6 C6         -4.0437    2.7050   50.5832 C.ar    1  ZINC000482910431   -0.1000
      7 C7         -4.4180    3.4688   51.6734 C.ar    1  ZINC000482910431   -0.0900
      8 C8         -5.6040    3.2038   52.3298 C.ar    1  ZINC000482910431   -0.1200
      9 C9         -6.4209    2.1690   51.8938 C.ar    1  ZINC000482910431    0.1700
     10 N10        -7.6234    1.8981   52.5564 N.am    1  ZINC000482910431   -0.6800
     11 C11        -7.6131    1.2215   53.7218 C.2     1  ZINC000482910431    0.7100
     12 O12        -6.5589    0.8463   54.1976 O.2     1  ZINC000482910431   -0.5500
     13 N13        -8.7712    0.9606   54.3600 N.am    1  ZINC000482910431   -0.7300
     14 C14        -8.7601    0.2236   55.6260 C.3     1  ZINC000482910431    0.1400
     15 H15        -7.7359    0.0318   55.9457 H       1  ZINC000482910431    0.1400
     16 C16        -9.5293    1.0068   56.7150 C.3     1  ZINC000482910431   -0.1400
     17 C17       -10.2113   -0.1346   57.5014 C.3     1  ZINC000482910431    0.0900
     18 N18       -10.3350   -1.2457   56.5506 N.am    1  ZINC000482910431   -0.5600
     19 C19       -11.1853   -2.3437   56.7253 C.ar    1  ZINC000482910431    0.2000
     20 C20       -10.7834   -3.4162   57.5104 C.ar    1  ZINC000482910431   -0.1600
     21 C21       -11.6235   -4.4994   57.6821 C.ar    1  ZINC000482910431   -0.0500
     22 C22       -12.8651   -4.5172   57.0729 C.ar    1  ZINC000482910431   -0.1000
     23 Cl23      -13.9182   -5.8800   57.2910 Cl      1  ZINC000482910431   -0.0500
     24 C24       -13.2700   -3.4481   56.2889 C.ar    1  ZINC000482910431    0.1400
     25 F25       -14.4834   -3.4673   55.6952 F       1  ZINC000482910431   -0.1200
     26 C26       -12.4342   -2.3595   56.1186 C.ar    1  ZINC000482910431   -0.1900
     27 C27        -9.5240   -1.0751   55.4893 C.2     1  ZINC000482910431    0.5000
     28 O28        -9.4246   -1.8476   54.5596 O.2     1  ZINC000482910431   -0.4800
     29 C29        -6.0422    1.4036   50.7986 C.ar    1  ZINC000482910431   -0.1400
     30 C30        -4.8576    1.6772   50.1434 C.ar    1  ZINC000482910431   -0.0900
     31 H31        -1.5281    2.5243   51.5796 H       1  ZINC000482910431    0.0800
     32 H32        -1.8226    1.1525   50.4842 H       1  ZINC000482910431    0.0700
     33 H33        -0.6759    2.4322   50.0195 H       1  ZINC000482910431    0.0700
     34 H34        -1.5178    4.7083   49.4254 H       1  ZINC000482910431    0.0700
     35 H35        -3.2642    5.0501   49.4668 H       1  ZINC000482910431    0.0700
     36 H36        -2.3700    4.8004   50.9854 H       1  ZINC000482910431    0.0800
     37 H37        -3.7821    4.2734   52.0123 H       1  ZINC000482910431    0.1400
     38 H38        -5.8955    3.8005   53.1814 H       1  ZINC000482910431    0.1400
     39 H39        -8.4644    2.1974   52.1767 H       1  ZINC000482910431    0.4100
     40 H40        -9.6120    1.2610   53.9810 H       1  ZINC000482910431    0.4000
     41 H41        -8.8431    1.5641   57.3527 H       1  ZINC000482910431    0.1100
     42 H42       -10.2703    1.6699   56.2685 H       1  ZINC000482910431    0.1000
     43 H43        -9.5931   -0.4306   58.3489 H       1  ZINC000482910431    0.0900
     44 H44       -11.1970    0.1800   57.8442 H       1  ZINC000482910431    0.1000
     45 H45        -9.8140   -3.4038   57.9863 H       1  ZINC000482910431    0.1700
     46 H46       -11.3102   -5.3335   58.2925 H       1  ZINC000482910431    0.1500
     47 H47       -12.7492   -1.5261   55.5082 H       1  ZINC000482910431    0.1500
     48 H48        -6.6754    0.5981   50.4571 H       1  ZINC000482910431    0.1300
     49 H49        -4.5627    1.0826   49.2913 H       1  ZINC000482910431    0.1300
@<TRIPOS>BOND
     1     1     2    1
     2     1    31    1
     3     1    32    1
     4     1    33    1
     5     2     3    1
     6     2     4    1
     7     2     6    1
     8     3    34    1
     9     3    35    1
    10     3    36    1
    11     4     5    3
    12     6    30   ar
    13     6     7   ar
    14     7     8   ar
    15     7    37    1
    16     8     9   ar
    17     8    38    1
    18     9    10    1
    19     9    29   ar
    20    10    11   am
    21    10    39    1
    22    11    12    2
    23    11    13   am
    24    13    14    1
    25    13    40    1
    26    14    15    1
    27    14    27    1
    28    14    16    1
    29    16    17    1
    30    16    41    1
    31    16    42    1
    32    17    18    1
    33    17    43    1
    34    17    44    1
    35    18    19    1
    36    18    27   am
    37    19    26   ar
    38    19    20   ar
    39    20    21   ar
    40    20    45    1
    41    21    22   ar
    42    21    46    1
    43    22    23    1
    44    22    24   ar
    45    24    25    1
    46    24    26   ar
    47    26    47    1
    48    27    28    2
    49    29    30   ar
    50    29    48    1
    51    30    49    1
@<TRIPOS>SUBSTRUCTURE
     1 ZINC000482910431        1 TEMP              0 ****  ****    0 ROOT


##########                                Name:    ZINC001341052241
##########                DOCK_Rotatable_Bonds:                   7
##########                         Heavy_Atoms:                  24
##########                    Molecular_Weight:             336.478
##########                DOCK_Rotatable_Bonds:                   7
##########                       Formal_Charge:         5.96046e-08
##########                     HBond_Acceptors:                   6
##########                        HBond_Donors:                   0
##########                         Heavy_Atoms:                  24
##########                          Grid_Score:          -31.099070
##########                     Grid_vdw_energy:          -30.518213
##########                      Grid_es_energy:           -0.580857
##########           Internal_energy_repulsive:           12.720906

@<TRIPOS>MOLECULE
ZINC001341052241
 56 58 1 0 0
SMALL
USER_CHARGES


@<TRIPOS>ATOM
      1 C1         -9.0929    3.5628   50.7175 C.3     1  ZINC001341052241   -0.1700
      2 C2         -7.7560    3.3379   51.4268 C.3     1  ZINC001341052241    0.1100
      3 N3         -7.2483    2.0032   51.1001 N.pl3   1  ZINC001341052241   -0.4500
      4 C4         -6.4016    1.6690   50.0797 C.2     1  ZINC001341052241    0.1800
      5 C5         -5.8061    2.6134   49.0675 C.3     1  ZINC001341052241    0.1500
      6 O6         -4.5372    2.1146   48.6395 O.3     1  ZINC001341052241   -0.3700
      7 C7         -3.5657    2.0250   49.6838 C.3     1  ZINC001341052241    0.0900
      8 C8         -3.2811    3.4228   50.2368 C.3     1  ZINC001341052241   -0.1400
      9 C9         -2.2410    3.3269   51.3548 C.3     1  ZINC001341052241   -0.1200
     10 C10        -0.9487    2.7254   50.7989 C.3     1  ZINC001341052241   -0.1200
     11 C11        -1.2334    1.3277   50.2458 C.3     1  ZINC001341052241   -0.1200
     12 C12        -2.2734    1.4236   49.1278 C.3     1  ZINC001341052241   -0.1200
     13 N13        -6.2046    0.3827   50.1451 N.2     1  ZINC001341052241   -0.2600
     14 N14        -6.8595   -0.1138   51.1333 N.2     1  ZINC001341052241   -0.3100
     15 C15        -7.5226    0.8355   51.7506 C.2     1  ZINC001341052241    0.3500
     16 N16        -8.3419    0.6821   52.8575 N.3     1  ZINC001341052241   -0.4600
     17 C17        -9.1795   -0.5174   52.7301 C.3     1  ZINC001341052241    0.0700
     18 C18       -10.1699   -0.5758   53.8954 C.3     1  ZINC001341052241   -0.1100
     19 C19        -9.3954   -0.6092   55.2159 C.3     1  ZINC001341052241   -0.0900
     20 C20       -10.3805   -0.6061   56.3866 C.3     1  ZINC001341052241    0.0700
     21 O21       -10.0113   -1.6209   57.3225 O.3     1  ZINC001341052241   -0.3900
     22 C22       -10.8283   -1.6558   58.4944 C.3     1  ZINC001341052241    0.0300
     23 C23        -8.4949    0.6262   55.3017 C.3     1  ZINC001341052241   -0.1100
     24 C24        -7.5530    0.6497   54.0957 C.3     1  ZINC001341052241    0.0700
     25 H25        -8.9525    3.4718   49.6405 H       1  ZINC001341052241    0.0600
     26 H26        -9.8129    2.8171   51.0544 H       1  ZINC001341052241    0.0700
     27 H27        -9.4656    4.5599   50.9524 H       1  ZINC001341052241    0.0800
     28 H28        -7.8984    3.4188   52.5045 H       1  ZINC001341052241    0.0900
     29 H29        -7.0390    4.0901   51.0977 H       1  ZINC001341052241    0.1000
     30 H30        -6.4731    2.6939   48.2092 H       1  ZINC001341052241    0.0900
     31 H31        -5.6763    3.5964   49.5202 H       1  ZINC001341052241    0.0700
     32 H32        -3.9483    1.3892   50.4823 H       1  ZINC001341052241    0.0600
     33 H33        -2.8986    4.0586   49.4383 H       1  ZINC001341052241    0.0700
     34 H34        -4.2017    3.8513   50.6329 H       1  ZINC001341052241    0.0700
     35 H35        -2.6235    2.6912   52.1534 H       1  ZINC001341052241    0.0600
     36 H36        -2.0382    4.3228   51.7488 H       1  ZINC001341052241    0.0700
     37 H37        -0.2077    2.6572   51.5954 H       1  ZINC001341052241    0.0600
     38 H38        -0.5662    3.3612   50.0003 H       1  ZINC001341052241    0.0600
     39 H39        -1.6158    0.6919   51.0443 H       1  ZINC001341052241    0.0600
     40 H40        -0.3127    0.8992   49.8497 H       1  ZINC001341052241    0.0700
     41 H41        -2.4763    0.4277   48.7338 H       1  ZINC001341052241    0.0700
     42 H42        -1.8909    2.0593   48.3293 H       1  ZINC001341052241    0.0700
     43 H43        -8.5473   -1.4052   52.7461 H       1  ZINC001341052241    0.0600
     44 H44        -9.7280   -0.4791   51.7890 H       1  ZINC001341052241    0.0800
     45 H45       -10.7808   -1.4742   53.8090 H       1  ZINC001341052241    0.0800
     46 H46       -10.8116    0.3051   53.8721 H       1  ZINC001341052241    0.0800
     47 H47        -8.7838   -1.5105   55.2568 H       1  ZINC001341052241    0.0800
     48 H48       -11.3864   -0.8028   56.0155 H       1  ZINC001341052241    0.0500
     49 H49       -10.3582    0.3667   56.8778 H       1  ZINC001341052241    0.0500
     50 H50       -10.7606   -0.6997   59.0132 H       1  ZINC001341052241    0.0400
     51 H51       -10.4837   -2.4524   59.1539 H       1  ZINC001341052241    0.0900
     52 H52       -11.8639   -1.8423   58.2098 H       1  ZINC001341052241    0.0400
     53 H53        -9.1103    1.5259   55.3005 H       1  ZINC001341052241    0.0700
     54 H54        -7.9092    0.5864   56.2202 H       1  ZINC001341052241    0.0800
     55 H55        -6.9284   -0.2435   54.1052 H       1  ZINC001341052241    0.0600
     56 H56        -6.9202    1.5358   54.1464 H       1  ZINC001341052241    0.0800
@<TRIPOS>BOND
     1     1     2    1
     2     1    25    1
     3     1    26    1
     4     1    27    1
     5     2     3    1
     6     2    28    1
     7     2    29    1
     8     3    15    1
     9     3     4    1
    10     4     5    1
    11     4    13    2
    12     5     6    1
    13     5    30    1
    14     5    31    1
    15     6     7    1
    16     7    12    1
    17     7     8    1
    18     7    32    1
    19     8     9    1
    20     8    33    1
    21     8    34    1
    22     9    10    1
    23     9    35    1
    24     9    36    1
    25    10    11    1
    26    10    37    1
    27    10    38    1
    28    11    12    1
    29    11    39    1
    30    11    40    1
    31    12    41    1
    32    12    42    1
    33    13    14    1
    34    14    15    2
    35    15    16    1
    36    16    24    1
    37    16    17    1
    38    17    18    1
    39    17    43    1
    40    17    44    1
    41    18    19    1
    42    18    45    1
    43    18    46    1
    44    19    20    1
    45    19    23    1
    46    19    47    1
    47    20    21    1
    48    20    48    1
    49    20    49    1
    50    21    22    1
    51    22    50    1
    52    22    51    1
    53    22    52    1
    54    23    24    1
    55    23    53    1
    56    23    54    1
    57    24    55    1
    58    24    56    1
@<TRIPOS>SUBSTRUCTURE
     1 ZINC001341052241        1 TEMP              0 ****  ****    0 ROOT


##########                                Name:    ZINC000880838037
##########                DOCK_Rotatable_Bonds:                   9
##########                         Heavy_Atoms:                  24
##########                    Molecular_Weight:             365.477
##########                DOCK_Rotatable_Bonds:                   9
##########                       Formal_Charge:           0.0200001
##########                     HBond_Acceptors:                   8
##########                        HBond_Donors:                   3
##########                         Heavy_Atoms:                  24
##########                          Grid_Score:          -31.097965
##########                     Grid_vdw_energy:          -30.894449
##########                      Grid_es_energy:           -0.203516
##########           Internal_energy_repulsive:            9.915342

@<TRIPOS>MOLECULE
ZINC000880838037
 43 44 1 0 0
SMALL
USER_CHARGES


@<TRIPOS>ATOM
      1 C1        -14.3143   -2.6535   60.7895 C.3     1  ZINC000880838037    0.0300
      2 O2        -13.5865   -3.3463   59.7735 O.3     1  ZINC000880838037   -0.3100
      3 C3        -12.4296   -2.7760   59.3456 C.ar    1  ZINC000880838037    0.1400
      4 C4        -11.2947   -2.8259   60.1425 C.ar    1  ZINC000880838037   -0.2200
      5 C5        -10.1174   -2.2462   59.7087 C.ar    1  ZINC000880838037   -0.0700
      6 C6        -10.0667   -1.6150   58.4812 C.ar    1  ZINC000880838037   -0.1500
      7 C7        -11.2000   -1.5616   57.6793 C.ar    1  ZINC000880838037    0.1800
      8 N8        -11.1486   -0.9221   56.4358 N.am    1  ZINC000880838037   -0.6700
      9 C9        -10.6680   -1.5773   55.3605 C.2     1  ZINC000880838037    0.5200
     10 O10       -10.2801   -2.7210   55.4707 O.2     1  ZINC000880838037   -0.4900
     11 C11       -10.6128   -0.8886   54.0213 C.3     1  ZINC000880838037   -0.0600
     12 C12        -9.2144   -0.3847   53.7728 C.2     1  ZINC000880838037    0.1000
     13 C13        -8.4656    0.1640   54.7300 C.2     1  ZINC000880838037   -0.2600
     14 S14        -6.9156    0.6122   54.0231 S.3     1  ZINC000880838037    0.1300
     15 C15        -7.4245    0.0170   52.5033 C.2     1  ZINC000880838037    0.0100
     16 S16        -6.4513    0.0357   51.0345 S.3     1  ZINC000880838037    0.1000
     17 C17        -5.6137    1.6279   51.2327 C.3     1  ZINC000880838037   -0.1500
     18 H18        -5.3440    1.7688   52.2794 H       1  ZINC000880838037    0.1200
     19 C19        -6.5493    2.7550   50.7910 C.3     1  ZINC000880838037   -0.1500
     20 C20        -4.3674    1.6488   50.3857 C.2     1  ZINC000880838037    0.5400
     21 N21        -4.4358    2.0323   49.0954 N.am    1  ZINC000880838037   -0.8400
     22 O22        -3.3028    1.3205   50.8651 O.2     1  ZINC000880838037   -0.5200
     23 N23        -8.6296   -0.4559   52.5905 N.2     1  ZINC000880838037   -0.4200
     24 C24       -12.3810   -2.1487   58.1103 C.ar    1  ZINC000880838037   -0.1500
     25 C25       -13.6123   -2.0927   57.2431 C.3     1  ZINC000880838037   -0.1000
     26 H26       -14.5924   -1.6640   60.4266 H       1  ZINC000880838037    0.0600
     27 H27       -15.2146   -3.2154   61.0388 H       1  ZINC000880838037    0.1000
     28 H28       -13.6913   -2.5528   61.6782 H       1  ZINC000880838037    0.0600
     29 H29       -11.3315   -3.3181   61.1031 H       1  ZINC000880838037    0.1300
     30 H30        -9.2356   -2.2865   60.3309 H       1  ZINC000880838037    0.1300
     31 H31        -9.1456   -1.1624   58.1447 H       1  ZINC000880838037    0.1400
     32 H32       -11.4590   -0.0073   56.3477 H       1  ZINC000880838037    0.4100
     33 H33       -10.8892   -1.5944   53.2380 H       1  ZINC000880838037    0.1200
     34 H34       -11.3079   -0.0489   54.0155 H       1  ZINC000880838037    0.1200
     35 H35        -8.7586    0.3089   55.7593 H       1  ZINC000880838037    0.1800
     36 H36        -6.8190    2.6142   49.7443 H       1  ZINC000880838037    0.0900
     37 H37        -7.4508    2.7400   51.4036 H       1  ZINC000880838037    0.0800
     38 H38        -6.0449    3.7138   50.9104 H       1  ZINC000880838037    0.0800
     39 H39        -3.6335    2.0469   48.5506 H       1  ZINC000880838037    0.4000
     40 H40        -5.2875    2.2937   48.7118 H       1  ZINC000880838037    0.4100
     41 H41       -13.6336   -2.9620   56.5860 H       1  ZINC000880838037    0.0700
     42 H42       -14.5012   -2.0921   57.8739 H       1  ZINC000880838037    0.0700
     43 H43       -13.5925   -1.1835   56.6424 H       1  ZINC000880838037    0.0600
@<TRIPOS>BOND
     1     1     2    1
     2     1    26    1
     3     1    27    1
     4     1    28    1
     5     2     3    1
     6     3    24   ar
     7     3     4   ar
     8     4     5   ar
     9     4    29    1
    10     5     6   ar
    11     5    30    1
    12     6     7   ar
    13     6    31    1
    14     7     8    1
    15     7    24   ar
    16     8     9   am
    17     8    32    1
    18     9    10    2
    19     9    11    1
    20    11    12    1
    21    11    33    1
    22    11    34    1
    23    12    23    1
    24    12    13    2
    25    13    14    1
    26    13    35    1
    27    14    15    1
    28    15    16    1
    29    15    23    2
    30    16    17    1
    31    17    18    1
    32    17    19    1
    33    17    20    1
    34    19    36    1
    35    19    37    1
    36    19    38    1
    37    20    21   am
    38    20    22    2
    39    21    39    1
    40    21    40    1
    41    24    25    1
    42    25    41    1
    43    25    42    1
    44    25    43    1
@<TRIPOS>SUBSTRUCTURE
     1 ZINC000880838037        1 TEMP              0 ****  ****    0 ROOT


##########                                Name:    ZINC000938043669
##########                DOCK_Rotatable_Bonds:                   7
##########                         Heavy_Atoms:                  27
##########                    Molecular_Weight:             372.439
##########                DOCK_Rotatable_Bonds:                   7
##########                       Formal_Charge:           0.0499999
##########                     HBond_Acceptors:                   6
##########                        HBond_Donors:                   1
##########                         Heavy_Atoms:                  27
##########                          Grid_Score:          -31.093777
##########                     Grid_vdw_energy:          -30.460821
##########                      Grid_es_energy:           -0.632955
##########           Internal_energy_repulsive:           19.706001

@<TRIPOS>MOLECULE
ZINC000938043669
 52 55 1 0 0
SMALL
USER_CHARGES


@<TRIPOS>ATOM
      1 O1         -9.7416    1.3917   52.3741 O.2     1  ZINC000938043669   -0.5000
      2 C2         -8.5939    1.1296   52.0825 C.2     1  ZINC000938043669    0.5300
      3 C3         -7.9620   -0.1444   52.5812 C.3     1  ZINC000938043669    0.0500
      4 O4         -8.6528   -0.5935   53.7487 O.3     1  ZINC000938043669   -0.2800
      5 C5         -8.3617    0.0353   54.9184 C.ar    1  ZINC000938043669    0.0900
      6 C6         -7.4808    1.1055   54.9310 C.ar    1  ZINC000938043669   -0.1800
      7 C7         -7.1865    1.7438   56.1211 C.ar    1  ZINC000938043669   -0.0900
      8 C8         -7.7695    1.3164   57.2993 C.ar    1  ZINC000938043669   -0.1300
      9 C9         -8.6485    0.2488   57.2915 C.ar    1  ZINC000938043669   -0.1100
     10 C10        -8.9510   -0.3900   56.1028 C.ar    1  ZINC000938043669    0.0800
     11 F11        -9.8097   -1.4328   56.0947 F       1  ZINC000938043669   -0.1300
     12 N12        -7.8855    1.9748   51.3079 N.am    1  ZINC000938043669   -0.6200
     13 C13        -8.3763    3.2453   50.7544 C.3     1  ZINC000938043669    0.1000
     14 C14        -7.2143    3.8786   49.9606 C.3     1  ZINC000938043669   -0.1400
     15 C15        -5.9618    3.2050   50.5810 C.3     1  ZINC000938043669    0.1300
     16 H16        -5.6624    3.7086   51.5001 H       1  ZINC000938043669    0.1100
     17 N17        -4.8556    3.1686   49.6213 N.am    1  ZINC000938043669   -0.7200
     18 C18        -3.6083    2.8784   50.0414 C.2     1  ZINC000938043669    0.5200
     19 O19        -3.4019    2.6460   51.2137 O.2     1  ZINC000938043669   -0.5200
     20 C20        -2.4700    2.8426   49.0544 C.3     1  ZINC000938043669   -0.1000
     21 H21        -2.2623    3.8531   48.7030 H       1  ZINC000938043669    0.1000
     22 C22        -2.8536    1.9582   47.8657 C.3     1  ZINC000938043669   -0.1100
     23 C23        -1.8609    0.7943   47.7505 C.3     1  ZINC000938043669   -0.0600
     24 H24        -2.1456    0.1224   46.9407 H       1  ZINC000938043669    0.0800
     25 C25        -1.8477    0.0591   49.0824 C.2     1  ZINC000938043669   -0.1800
     26 C26        -1.5141    0.8281   50.1162 C.2     1  ZINC000938043669   -0.1300
     27 C27        -1.2201    2.2715   49.7363 C.3     1  ZINC000938043669   -0.0400
     28 H28        -0.9474    2.8548   50.6159 H       1  ZINC000938043669    0.0900
     29 C29        -0.0753    2.2606   48.7140 C.3     1  ZINC000938043669   -0.1200
     30 C30        -0.4614    1.3763   47.5080 C.3     1  ZINC000938043669   -0.1100
     31 C31        -6.4879    1.7815   50.8803 C.3     1  ZINC000938043669    0.1000
     32 H32        -8.0238   -0.9084   51.8061 H       1  ZINC000938043669    0.1000
     33 H33        -6.9162    0.0405   52.8265 H       1  ZINC000938043669    0.1000
     34 H34        -7.0244    1.4403   54.0112 H       1  ZINC000938043669    0.1400
     35 H35        -6.4999    2.5774   56.1306 H       1  ZINC000938043669    0.1300
     36 H36        -7.5377    1.8170   58.2279 H       1  ZINC000938043669    0.1400
     37 H37        -9.1023   -0.0834   58.2135 H       1  ZINC000938043669    0.1500
     38 H38        -9.2206    3.0590   50.0906 H       1  ZINC000938043669    0.0800
     39 H39        -8.6782    3.9102   51.5637 H       1  ZINC000938043669    0.0800
     40 H40        -7.2958    3.6389   48.9003 H       1  ZINC000938043669    0.0900
     41 H41        -7.1868    4.9577   50.1120 H       1  ZINC000938043669    0.1000
     42 H42        -5.0208    3.3531   48.6834 H       1  ZINC000938043669    0.4000
     43 H43        -3.8588    1.5646   48.0156 H       1  ZINC000938043669    0.0700
     44 H44        -2.8280    2.5493   46.9503 H       1  ZINC000938043669    0.0800
     45 H45        -2.0868   -0.9896   49.1801 H       1  ZINC000938043669    0.1200
     46 H46        -1.4580    0.4616   51.1306 H       1  ZINC000938043669    0.1200
     47 H47         0.1101    3.2766   48.3656 H       1  ZINC000938043669    0.0700
     48 H48         0.8267    1.8674   49.1831 H       1  ZINC000938043669    0.0700
     49 H49         0.2567    0.5621   47.4101 H       1  ZINC000938043669    0.0700
     50 H50        -0.4538    1.9780   46.5993 H       1  ZINC000938043669    0.0700
     51 H51        -5.9040    1.3212   51.6774 H       1  ZINC000938043669    0.0900
     52 H52        -6.4534    1.1673   49.9805 H       1  ZINC000938043669    0.0700
@<TRIPOS>BOND
     1     1     2    2
     2     2     3    1
     3     2    12   am
     4     3     4    1
     5     3    32    1
     6     3    33    1
     7     4     5    1
     8     5    10   ar
     9     5     6   ar
    10     6     7   ar
    11     6    34    1
    12     7     8   ar
    13     7    35    1
    14     8     9   ar
    15     8    36    1
    16     9    10   ar
    17     9    37    1
    18    10    11    1
    19    12    31    1
    20    12    13    1
    21    13    14    1
    22    13    38    1
    23    13    39    1
    24    14    15    1
    25    14    40    1
    26    14    41    1
    27    15    16    1
    28    15    17    1
    29    15    31    1
    30    17    18   am
    31    17    42    1
    32    18    19    2
    33    18    20    1
    34    20    21    1
    35    20    27    1
    36    20    22    1
    37    22    23    1
    38    22    43    1
    39    22    44    1
    40    23    24    1
    41    23    30    1
    42    23    25    1
    43    25    26    2
    44    25    45    1
    45    26    27    1
    46    26    46    1
    47    27    28    1
    48    27    29    1
    49    29    30    1
    50    29    47    1
    51    29    48    1
    52    30    49    1
    53    30    50    1
    54    31    51    1
    55    31    52    1
@<TRIPOS>SUBSTRUCTURE
     1 ZINC000938043669        1 TEMP              0 ****  ****    0 ROOT


##########                                Name:    ZINC000550952205
##########                DOCK_Rotatable_Bonds:                   7
##########                         Heavy_Atoms:                  28
##########                    Molecular_Weight:             407.484
##########                DOCK_Rotatable_Bonds:                   7
##########                       Formal_Charge:        -2.68221e-07
##########                     HBond_Acceptors:                   8
##########                        HBond_Donors:                   2
##########                         Heavy_Atoms:                  28
##########                          Grid_Score:          -31.090738
##########                     Grid_vdw_energy:          -31.092051
##########                      Grid_es_energy:            0.001312
##########           Internal_energy_repulsive:            4.326908

@<TRIPOS>MOLECULE
ZINC000550952205
 51 54 1 0 0
SMALL
USER_CHARGES


@<TRIPOS>ATOM
      1 O1         -7.9774    3.8502   50.2785 O.2     1  ZINC000550952205   -0.5100
      2 C2         -7.3565    3.0151   50.9029 C.2     1  ZINC000550952205    0.5100
      3 N3         -6.0772    2.7436   50.5773 N.am    1  ZINC000550952205   -0.7000
      4 C4         -5.4379    3.4524   49.4658 C.3     1  ZINC000550952205    0.1200
      5 C5         -3.9219    3.2619   49.5441 C.3     1  ZINC000550952205   -0.0900
      6 H6         -3.4384    3.8473   48.7619 H       1  ZINC000550952205    0.1000
      7 C7         -3.4249    3.7109   50.8916 C.3     1  ZINC000550952205   -0.1300
      8 C8         -2.0192    4.3377   50.8226 C.3     1  ZINC000550952205   -0.1200
      9 C9         -1.0661    3.5662   49.8898 C.3     1  ZINC000550952205   -0.1300
     10 C10        -1.1973    2.0747   50.0384 C.3     1  ZINC000550952205   -0.1500
     11 C11        -2.1910    1.5620   48.9759 C.3     1  ZINC000550952205    0.3000
     12 F12        -1.9547    2.2352   47.7725 F       1  ZINC000550952205   -0.2000
     13 F13        -1.9772    0.1936   48.7785 F       1  ZINC000550952205   -0.2000
     14 C14        -3.5771    1.7697   49.3624 C.3     1  ZINC000550952205   -0.1700
     15 C15        -8.0080    2.2927   52.0358 C.2     1  ZINC000550952205    0.5100
     16 O16        -9.1360    2.5866   52.3746 O.2     1  ZINC000550952205   -0.4900
     17 N17        -7.3437    1.3142   52.6820 N.am    1  ZINC000550952205   -0.6400
     18 C18        -7.9536    0.6379   53.7425 C.ar    1  ZINC000550952205    0.1500
     19 C19        -8.7920   -0.4466   53.4889 C.ar    1  ZINC000550952205   -0.1200
     20 C20        -9.3924   -1.1146   54.5113 C.ar    1  ZINC000550952205   -0.0400
     21 C21        -9.1773   -0.7214   55.8480 C.ar    1  ZINC000550952205    0.0800
     22 N22        -9.6717   -1.2439   56.9869 N.2     1  ZINC000550952205   -0.4700
     23 C23        -9.3237   -0.7037   58.0927 C.2     1  ZINC000550952205    0.1200
     24 C24        -9.7890   -1.1710   59.4478 C.3     1  ZINC000550952205   -0.1100
     25 C25        -9.9812   -2.6756   59.6487 C.3     1  ZINC000550952205   -0.1500
     26 C26        -8.7959   -1.9617   60.3017 C.3     1  ZINC000550952205   -0.1500
     27 S27        -8.2661    0.6118   57.8420 S.3     1  ZINC000550952205    0.1200
     28 C28        -8.3344    0.3676   56.0995 C.ar    1  ZINC000550952205   -0.1700
     29 C29        -7.7214    1.0403   55.0459 C.ar    1  ZINC000550952205   -0.0700
     30 H30        -5.5796    2.0789   51.0788 H       1  ZINC000550952205    0.4200
     31 H31        -5.8059    3.0531   48.5207 H       1  ZINC000550952205    0.0800
     32 H32        -5.6744    4.5145   49.5283 H       1  ZINC000550952205    0.0800
     33 H33        -4.1197    4.4468   51.2964 H       1  ZINC000550952205    0.0700
     34 H34        -3.3952    2.8512   51.5609 H       1  ZINC000550952205    0.0700
     35 H35        -2.1087    5.3631   50.4636 H       1  ZINC000550952205    0.0700
     36 H36        -1.5922    4.3547   51.8253 H       1  ZINC000550952205    0.0700
     37 H37        -1.2859    3.8385   48.8575 H       1  ZINC000550952205    0.0800
     38 H38        -0.0398    3.8545   50.1176 H       1  ZINC000550952205    0.0700
     39 H39        -0.2255    1.6048   49.8877 H       1  ZINC000550952205    0.0900
     40 H40        -1.5715    1.8374   51.0343 H       1  ZINC000550952205    0.1000
     41 H41        -3.7622    1.2528   50.3040 H       1  ZINC000550952205    0.1000
     42 H42        -4.2248    1.3448   48.5955 H       1  ZINC000550952205    0.1000
     43 H43        -6.4425    1.0792   52.4112 H       1  ZINC000550952205    0.4300
     44 H44        -8.9671   -0.7598   52.4702 H       1  ZINC000550952205    0.1400
     45 H45       -10.0393   -1.9524   54.2968 H       1  ZINC000550952205    0.1400
     46 H46       -10.4766   -0.5019   59.9653 H       1  ZINC000550952205    0.1300
     47 H47       -10.7954   -2.9967   60.2983 H       1  ZINC000550952205    0.1000
     48 H48        -9.7711   -3.3274   58.8007 H       1  ZINC000550952205    0.1100
     49 H49        -7.8060   -2.1440   59.8835 H       1  ZINC000550952205    0.1000
     50 H50        -8.8303   -1.8133   61.3811 H       1  ZINC000550952205    0.1100
     51 H51        -7.0677    1.8764   55.2456 H       1  ZINC000550952205    0.1400
@<TRIPOS>BOND
     1     1     2    2
     2     2     3   am
     3     2    15    1
     4     3     4    1
     5     3    30    1
     6     4     5    1
     7     4    31    1
     8     4    32    1
     9     5     6    1
    10     5    14    1
    11     5     7    1
    12     7     8    1
    13     7    33    1
    14     7    34    1
    15     8     9    1
    16     8    35    1
    17     8    36    1
    18     9    10    1
    19     9    37    1
    20     9    38    1
    21    10    11    1
    22    10    39    1
    23    10    40    1
    24    11    12    1
    25    11    13    1
    26    11    14    1
    27    14    41    1
    28    14    42    1
    29    15    16    2
    30    15    17   am
    31    17    18    1
    32    17    43    1
    33    18    29   ar
    34    18    19   ar
    35    19    20   ar
    36    19    44    1
    37    20    21   ar
    38    20    45    1
    39    21    28   ar
    40    21    22    1
    41    22    23    2
    42    23    24    1
    43    23    27    1
    44    24    26    1
    45    24    25    1
    46    24    46    1
    47    25    26    1
    48    25    47    1
    49    25    48    1
    50    26    49    1
    51    26    50    1
    52    27    28    1
    53    28    29   ar
    54    29    51    1
@<TRIPOS>SUBSTRUCTURE
     1 ZINC000550952205        1 TEMP              0 ****  ****    0 ROOT


##########                                Name:    ZINC000579444893
##########                DOCK_Rotatable_Bonds:                   8
##########                         Heavy_Atoms:                  26
##########                    Molecular_Weight:             365.494
##########                DOCK_Rotatable_Bonds:                   8
##########                       Formal_Charge:         -0.00999993
##########                     HBond_Acceptors:                   7
##########                        HBond_Donors:                   1
##########                         Heavy_Atoms:                  26
##########                          Grid_Score:          -31.080013
##########                     Grid_vdw_energy:          -29.715414
##########                      Grid_es_energy:           -1.364599
##########           Internal_energy_repulsive:           30.100363

@<TRIPOS>MOLECULE
ZINC000579444893
 58 60 1 0 0
SMALL
USER_CHARGES


@<TRIPOS>ATOM
      1 C1         -1.0949    0.2647   44.4444 C.3     1  ZINC000579444893   -0.1600
      2 C2         -0.7492    1.5623   45.1775 C.3     1  ZINC000579444893    0.1700
      3 H3         -1.4028    2.3619   44.8289 H       1  ZINC000579444893    0.0900
      4 N4         -0.9346    1.3734   46.6184 N.am    1  ZINC000579444893   -0.7400
      5 C5         -2.1394    1.5997   47.1782 C.2     1  ZINC000579444893    0.7100
      6 O6         -3.0723    1.9620   46.4875 O.2     1  ZINC000579444893   -0.5900
      7 N7         -2.3104    1.4242   48.5035 N.am    1  ZINC000579444893   -0.6300
      8 C8         -1.1870    0.9859   49.3353 C.3     1  ZINC000579444893    0.0800
      9 C9         -3.6197    1.6719   49.1123 C.3     1  ZINC000579444893    0.1100
     10 C10        -3.7702    3.1655   49.4082 C.3     1  ZINC000579444893    0.0600
     11 H11        -3.5967    3.7426   48.5000 H       1  ZINC000579444893    0.1000
     12 C12        -2.7642    3.5885   50.4993 C.3     1  ZINC000579444893   -0.1600
     13 C13        -3.5751    4.6030   51.3479 C.3     1  ZINC000579444893    0.0800
     14 H14        -3.5615    5.5928   50.8915 H       1  ZINC000579444893    0.1000
     15 F15        -3.0963    4.6532   52.6615 F       1  ZINC000579444893   -0.2000
     16 C16        -4.9960    3.9881   51.2974 C.3     1  ZINC000579444893    0.0200
     17 N17        -5.1230    3.4404   49.9264 N.3     1  ZINC000579444893   -0.5000
     18 C18        -5.9464    2.2240   49.9197 C.3     1  ZINC000579444893    0.1000
     19 C19        -7.3039    2.5330   50.4964 C.2     1  ZINC000579444893    0.0800
     20 C20        -8.0928    3.5806   50.1627 C.2     1  ZINC000579444893   -0.2500
     21 C21        -9.2619    3.4994   50.9264 C.2     1  ZINC000579444893    0.0400
     22 N22        -9.1778    2.4410   51.6910 N.2     1  ZINC000579444893   -0.2900
     23 N23        -7.9532    1.8114   51.4339 N.pl3   1  ZINC000579444893   -0.3700
     24 C24        -7.4602    0.5904   52.0760 C.3     1  ZINC000579444893    0.0900
     25 C25         0.7077    1.9351   44.8953 C.3     1  ZINC000579444893   -0.1000
     26 C26         1.1026    3.2109   45.6797 C.3     1  ZINC000579444893   -0.1200
     27 C27         2.6433    3.0875   45.7795 C.3     1  ZINC000579444893   -0.1300
     28 C28         2.8887    1.5806   46.0001 C.3     1  ZINC000579444893   -0.1300
     29 C29         1.6580    0.8479   45.4380 C.3     1  ZINC000579444893   -0.1200
     30 H30        -2.1020   -0.0500   44.7179 H       1  ZINC000579444893    0.0600
     31 H31        -1.0460    0.4313   43.3682 H       1  ZINC000579444893    0.0700
     32 H32        -0.3830   -0.5117   44.7244 H       1  ZINC000579444893    0.0500
     33 H33        -0.1901    1.0854   47.1695 H       1  ZINC000579444893    0.4000
     34 H34        -0.5924    1.8511   49.6281 H       1  ZINC000579444893    0.0600
     35 H35        -1.5678    0.4879   50.2271 H       1  ZINC000579444893    0.0800
     36 H36        -0.5650    0.2923   48.7695 H       1  ZINC000579444893    0.0700
     37 H37        -4.4052    1.3566   48.4256 H       1  ZINC000579444893    0.0900
     38 H38        -3.7011    1.1076   50.0412 H       1  ZINC000579444893    0.0900
     39 H39        -2.4675    2.7311   51.1032 H       1  ZINC000579444893    0.1100
     40 H40        -1.8924    4.0681   50.0544 H       1  ZINC000579444893    0.0800
     41 H41        -5.0914    3.1920   52.0358 H       1  ZINC000579444893    0.0600
     42 H42        -5.7487    4.7576   51.4683 H       1  ZINC000579444893    0.0900
     43 H43        -6.0592    1.8672   48.8959 H       1  ZINC000579444893    0.1100
     44 H44        -5.4627    1.4544   50.5213 H       1  ZINC000579444893    0.0500
     45 H45        -7.8606    4.3447   49.4356 H       1  ZINC000579444893    0.1500
     46 H46       -10.0904    4.1912   50.8913 H       1  ZINC000579444893    0.1800
     47 H47        -7.7354   -0.2742   51.4719 H       1  ZINC000579444893    0.0800
     48 H48        -6.3752    0.6400   52.1664 H       1  ZINC000579444893    0.0800
     49 H49        -7.9036    0.4968   53.0674 H       1  ZINC000579444893    0.0900
     50 H50         0.8634    2.0787   43.8260 H       1  ZINC000579444893    0.0800
     51 H51         0.8218    4.1070   45.1264 H       1  ZINC000579444893    0.0700
     52 H52         0.6501    3.2102   46.6712 H       1  ZINC000579444893    0.0700
     53 H53         3.1133    3.4190   44.8535 H       1  ZINC000579444893    0.0700
     54 H54         3.0181    3.6631   46.6258 H       1  ZINC000579444893    0.0700
     55 H55         3.7861    1.2665   45.4672 H       1  ZINC000579444893    0.0600
     56 H56         2.9938    1.3714   47.0647 H       1  ZINC000579444893    0.0600
     57 H57         1.1658    0.2831   46.2296 H       1  ZINC000579444893    0.0600
     58 H58         1.9581    0.1781   44.6321 H       1  ZINC000579444893    0.0600
@<TRIPOS>BOND
     1     1     2    1
     2     1    30    1
     3     1    31    1
     4     1    32    1
     5     2     3    1
     6     2     4    1
     7     2    25    1
     8     4     5   am
     9     4    33    1
    10     5     6    2
    11     5     7   am
    12     7     8    1
    13     7     9    1
    14     8    34    1
    15     8    35    1
    16     8    36    1
    17     9    10    1
    18     9    37    1
    19     9    38    1
    20    10    11    1
    21    10    17    1
    22    10    12    1
    23    12    13    1
    24    12    39    1
    25    12    40    1
    26    13    14    1
    27    13    15    1
    28    13    16    1
    29    16    17    1
    30    16    41    1
    31    16    42    1
    32    17    18    1
    33    18    19    1
    34    18    43    1
    35    18    44    1
    36    19    23    1
    37    19    20    2
    38    20    21    1
    39    20    45    1
    40    21    22    2
    41    21    46    1
    42    22    23    1
    43    23    24    1
    44    24    47    1
    45    24    48    1
    46    24    49    1
    47    25    29    1
    48    25    26    1
    49    25    50    1
    50    26    27    1
    51    26    51    1
    52    26    52    1
    53    27    28    1
    54    27    53    1
    55    27    54    1
    56    28    29    1
    57    28    55    1
    58    28    56    1
    59    29    57    1
    60    29    58    1
@<TRIPOS>SUBSTRUCTURE
     1 ZINC000579444893        1 TEMP              0 ****  ****    0 ROOT


##########                                Name:    ZINC000859202493
##########                DOCK_Rotatable_Bonds:                  11
##########                         Heavy_Atoms:                  25
##########                    Molecular_Weight:             382.404
##########                DOCK_Rotatable_Bonds:                  11
##########                       Formal_Charge:          -0.0200009
##########                     HBond_Acceptors:                  10
##########                        HBond_Donors:                   3
##########                         Heavy_Atoms:                  25
##########                          Grid_Score:          -31.079403
##########                     Grid_vdw_energy:          -29.489305
##########                      Grid_es_energy:           -1.590096
##########           Internal_energy_repulsive:           16.702377

@<TRIPOS>MOLECULE
ZINC000859202493
 46 46 1 0 0
SMALL
USER_CHARGES


@<TRIPOS>ATOM
      1 C1        -16.7308   -2.5267   58.8387 C.3     1  ZINC000859202493   -0.1500
      2 C2        -15.6514   -1.8794   59.7086 C.3     1  ZINC000859202493   -0.1200
      3 C3        -14.3007   -2.5372   59.4191 C.3     1  ZINC000859202493   -0.1000
      4 H4        -14.4513   -3.5935   59.1964 H       1  ZINC000859202493    0.0700
      5 C5        -13.3930   -2.3984   60.6429 C.3     1  ZINC000859202493   -0.1600
      6 C6        -13.6463   -1.8512   58.2183 C.3     1  ZINC000859202493   -0.1200
      7 C7        -12.9984   -2.9059   57.3189 C.3     1  ZINC000859202493    0.1600
      8 H8        -12.3129   -2.4200   56.6247 H       1  ZINC000859202493    0.1000
      9 C9        -14.0847   -3.6418   56.5318 C.3     1  ZINC000859202493    0.0500
     10 O10       -14.2557   -4.9548   57.0693 O.3     1  ZINC000859202493   -0.5700
     11 N11       -12.2596   -3.8644   58.1445 N.am    1  ZINC000859202493   -1.1000
     12 S12       -10.6194   -4.0146   57.9715 S.o2    1  ZINC000859202493    2.6900
     13 O13       -10.1866   -4.8952   58.9993 O.2     1  ZINC000859202493   -0.9500
     14 O14       -10.3819   -4.2546   56.5912 O.2     1  ZINC000859202493   -0.9500
     15 C15        -9.9108   -2.4422   58.3323 C.ar    1  ZINC000859202493   -0.6600
     16 C16        -9.8073   -1.4869   57.3382 C.ar    1  ZINC000859202493   -0.0300
     17 C17        -9.2513   -0.2517   57.6172 C.ar    1  ZINC000859202493   -0.1100
     18 C18        -8.7980    0.0313   58.8906 C.ar    1  ZINC000859202493   -0.0600
     19 C19        -8.9010   -0.9260   59.8916 C.ar    1  ZINC000859202493    0.1200
     20 N20        -8.4430   -0.6422   61.1829 N.am    1  ZINC000859202493   -0.6500
     21 C21        -9.2376    0.0156   62.0504 C.2     1  ZINC000859202493    0.4800
     22 O22       -10.3497    0.3614   61.7116 O.2     1  ZINC000859202493   -0.4500
     23 C23        -8.7444    0.3212   63.4411 C.3     1  ZINC000859202493    0.4600
     24 F24        -7.5627   -0.3874   63.6831 F       1  ZINC000859202493   -0.1500
     25 F25        -8.4974    1.6933   63.5573 F       1  ZINC000859202493   -0.1600
     26 F26        -9.7152   -0.0584   64.3742 F       1  ZINC000859202493   -0.1600
     27 C27        -9.4645   -2.1633   59.6095 C.ar    1  ZINC000859202493   -0.0300
     28 H28       -17.6930   -2.0581   59.0450 H       1  ZINC000859202493    0.0500
     29 H29       -16.4790   -2.3918   57.7868 H       1  ZINC000859202493    0.0500
     30 H30       -16.7894   -3.5914   59.0646 H       1  ZINC000859202493    0.0600
     31 H31       -15.5928   -0.8146   59.4826 H       1  ZINC000859202493    0.0600
     32 H32       -15.9032   -2.0143   60.7604 H       1  ZINC000859202493    0.0600
     33 H33       -12.4308   -2.8670   60.4366 H       1  ZINC000859202493    0.0500
     34 H34       -13.2425   -1.3420   60.8655 H       1  ZINC000859202493    0.0600
     35 H35       -13.8593   -2.8871   61.4983 H       1  ZINC000859202493    0.0600
     36 H36       -14.4034   -1.3075   57.6532 H       1  ZINC000859202493    0.0800
     37 H37       -12.8844   -1.1547   58.5684 H       1  ZINC000859202493    0.0800
     38 H38       -15.0233   -3.0929   56.6078 H       1  ZINC000859202493    0.0600
     39 H39       -13.7894   -3.7134   55.4850 H       1  ZINC000859202493    0.0600
     40 H40       -13.4565   -5.3227   57.4704 H       1  ZINC000859202493    0.3800
     41 H41       -12.7310   -4.4110   58.7925 H       1  ZINC000859202493    0.4200
     42 H42       -10.1610   -1.7058   56.3416 H       1  ZINC000859202493    0.1500
     43 H43        -9.1712    0.4922   56.8383 H       1  ZINC000859202493    0.1400
     44 H44        -8.3636    0.9959   59.1077 H       1  ZINC000859202493    0.1400
     45 H45        -7.5536   -0.9189   61.4539 H       1  ZINC000859202493    0.4200
     46 H46        -9.5459   -2.9099   60.3857 H       1  ZINC000859202493    0.1500
@<TRIPOS>BOND
     1     1     2    1
     2     1    28    1
     3     1    29    1
     4     1    30    1
     5     2     3    1
     6     2    31    1
     7     2    32    1
     8     3     4    1
     9     3     5    1
    10     3     6    1
    11     5    33    1
    12     5    34    1
    13     5    35    1
    14     6     7    1
    15     6    36    1
    16     6    37    1
    17     7     8    1
    18     7     9    1
    19     7    11    1
    20     9    10    1
    21     9    38    1
    22     9    39    1
    23    10    40    1
    24    11    12   am
    25    11    41    1
    26    12    13    2
    27    12    14    2
    28    12    15    1
    29    15    27   ar
    30    15    16   ar
    31    16    17   ar
    32    16    42    1
    33    17    18   ar
    34    17    43    1
    35    18    19   ar
    36    18    44    1
    37    19    20    1
    38    19    27   ar
    39    20    21   am
    40    20    45    1
    41    21    22    2
    42    21    23    1
    43    23    24    1
    44    23    25    1
    45    23    26    1
    46    27    46    1
@<TRIPOS>SUBSTRUCTURE
     1 ZINC000859202493        1 TEMP              0 ****  ****    0 ROOT


##########                                Name:    ZINC001362587626
##########                DOCK_Rotatable_Bonds:                   9
##########                         Heavy_Atoms:                  25
##########                    Molecular_Weight:             346.346
##########                DOCK_Rotatable_Bonds:                   9
##########                       Formal_Charge:        -4.02331e-07
##########                     HBond_Acceptors:                  10
##########                        HBond_Donors:                   2
##########                         Heavy_Atoms:                  25
##########                          Grid_Score:          -31.078873
##########                     Grid_vdw_energy:          -30.690102
##########                      Grid_es_energy:           -0.388772
##########           Internal_energy_repulsive:            5.230641

@<TRIPOS>MOLECULE
ZINC001362587626
 43 45 1 0 0
SMALL
USER_CHARGES


@<TRIPOS>ATOM
      1 C1        -11.5724   -0.8031   53.7754 C.3     1  ZINC001362587626   -0.1600
      2 C2        -10.2478   -1.0156   54.5110 C.3     1  ZINC001362587626    0.1300
      3 H3         -9.9738   -2.0698   54.4689 H       1  ZINC001362587626    0.1200
      4 N4        -10.3945   -0.6046   55.9096 N.am    1  ZINC001362587626   -0.7100
      5 C5        -10.6737   -1.5228   56.8559 C.2     1  ZINC001362587626    0.5100
      6 O6        -10.8019   -2.6893   56.5500 O.2     1  ZINC001362587626   -0.5000
      7 C7        -10.8264   -1.0997   58.2943 C.3     1  ZINC001362587626    0.1000
      8 N8         -9.5366   -1.2209   58.9784 N.pl3   1  ZINC001362587626   -0.3100
      9 C9         -9.1616   -2.2126   59.8076 C.2     1  ZINC001362587626    0.1600
     10 N10        -7.9410   -1.9360   60.1971 N.2     1  ZINC001362587626   -0.3000
     11 N11        -7.5849   -0.8322   59.6363 N.2     1  ZINC001362587626   -0.0700
     12 N12        -8.5447   -0.4002   58.8948 N.2     1  ZINC001362587626   -0.0700
     13 C13        -9.1710   -0.1901   53.8552 C.2     1  ZINC001362587626    0.5100
     14 O14        -9.3363    0.9999   53.6882 O.2     1  ZINC001362587626   -0.5200
     15 N15        -8.0244   -0.7741   53.4542 N.am    1  ZINC001362587626   -0.6600
     16 C16        -7.0234   -0.0066   52.8445 C.ar    1  ZINC001362587626    0.1000
     17 C17        -6.2359    0.8427   53.6104 C.ar    1  ZINC001362587626   -0.1000
     18 C18        -5.2492    1.5985   53.0089 C.ar    1  ZINC001362587626   -0.1900
     19 C19        -5.0448    1.5099   51.6397 C.ar    1  ZINC001362587626    0.1200
     20 O20        -4.0733    2.2547   51.0480 O.3     1  ZINC001362587626   -0.2800
     21 C21        -3.0382    1.5456   50.3640 C.3     1  ZINC001362587626    0.0100
     22 C22        -2.9336    1.8898   48.8662 C.3     1  ZINC001362587626    0.0200
     23 O23        -1.9841    2.8932   49.2789 O.3     1  ZINC001362587626   -0.3700
     24 C24        -1.6478    2.1954   50.4949 C.3     1  ZINC001362587626    0.0400
     25 C25        -5.8309    0.6613   50.8739 C.ar    1  ZINC001362587626   -0.1300
     26 C26        -6.8145   -0.0991   51.4749 C.ar    1  ZINC001362587626   -0.0800
     27 H27       -11.8464    0.2510   53.8175 H       1  ZINC001362587626    0.0700
     28 H28       -11.4632   -1.1089   52.7349 H       1  ZINC001362587626    0.0800
     29 H29       -12.3512   -1.4002   54.2497 H       1  ZINC001362587626    0.0800
     30 H30       -10.2907    0.3281   56.1544 H       1  ZINC001362587626    0.4100
     31 H31       -11.1632   -0.0639   58.3346 H       1  ZINC001362587626    0.1500
     32 H32       -11.5596   -1.7395   58.7853 H       1  ZINC001362587626    0.1400
     33 H33        -9.7521   -3.0696   60.0965 H       1  ZINC001362587626    0.2400
     34 H34        -7.8923   -1.7256   53.5878 H       1  ZINC001362587626    0.4100
     35 H35        -6.3954    0.9123   54.6763 H       1  ZINC001362587626    0.1300
     36 H36        -4.6366    2.2592   53.6045 H       1  ZINC001362587626    0.1400
     37 H37        -3.0456    0.4758   50.5722 H       1  ZINC001362587626    0.0900
     38 H38        -2.4995    1.0945   48.2603 H       1  ZINC001362587626    0.1000
     39 H39        -3.8510    2.2986   48.4425 H       1  ZINC001362587626    0.1000
     40 H40        -1.5452    2.8465   51.3630 H       1  ZINC001362587626    0.1000
     41 H41        -0.8210    1.4935   50.3864 H       1  ZINC001362587626    0.1000
     42 H42        -5.6712    0.5927   49.8080 H       1  ZINC001362587626    0.1400
     43 H43        -7.4261   -0.7601   50.8787 H       1  ZINC001362587626    0.1500
@<TRIPOS>BOND
     1     1     2    1
     2     1    27    1
     3     1    28    1
     4     1    29    1
     5     2     3    1
     6     2     4    1
     7     2    13    1
     8     4     5   am
     9     4    30    1
    10     5     6    2
    11     5     7    1
    12     7     8    1
    13     7    31    1
    14     7    32    1
    15     8    12    1
    16     8     9    1
    17     9    10    2
    18     9    33    1
    19    10    11    1
    20    11    12    2
    21    13    14    2
    22    13    15   am
    23    15    16    1
    24    15    34    1
    25    16    26   ar
    26    16    17   ar
    27    17    18   ar
    28    17    35    1
    29    18    19   ar
    30    18    36    1
    31    19    20    1
    32    19    25   ar
    33    20    21    1
    34    21    24    1
    35    21    22    1
    36    21    37    1
    37    22    23    1
    38    22    38    1
    39    22    39    1
    40    23    24    1
    41    24    40    1
    42    24    41    1
    43    25    26   ar
    44    25    42    1
    45    26    43    1
@<TRIPOS>SUBSTRUCTURE
     1 ZINC001362587626        1 TEMP              0 ****  ****    0 ROOT


##########                                Name:    ZINC001141221454
##########                DOCK_Rotatable_Bonds:                   7
##########                         Heavy_Atoms:                  27
##########                    Molecular_Weight:             369.439
##########                DOCK_Rotatable_Bonds:                   7
##########                       Formal_Charge:          0.00999935
##########                     HBond_Acceptors:                   6
##########                        HBond_Donors:                   1
##########                         Heavy_Atoms:                  27
##########                          Grid_Score:          -31.064777
##########                     Grid_vdw_energy:          -27.856047
##########                      Grid_es_energy:           -3.208731
##########           Internal_energy_repulsive:            9.091775

@<TRIPOS>MOLECULE
ZINC001141221454
 51 54 1 0 0
SMALL
USER_CHARGES


@<TRIPOS>ATOM
      1 C1        -10.9406    3.1244   50.9505 C.3     1  ZINC001141221454    0.0300
      2 O2        -10.1302    3.1149   52.1275 O.3     1  ZINC001141221454   -0.3100
      3 C3         -9.1348    2.1906   52.1840 C.ar    1  ZINC001141221454    0.0900
      4 C4         -9.4433    0.8403   52.2380 C.ar    1  ZINC001141221454   -0.1800
      5 C5         -8.4297   -0.0978   52.2949 C.ar    1  ZINC001141221454   -0.0900
      6 C6         -7.1086    0.3086   52.2981 C.ar    1  ZINC001141221454   -0.1200
      7 C7         -6.7963    1.6548   52.2448 C.ar    1  ZINC001141221454   -0.0800
      8 C8         -5.3549    2.0943   52.2490 C.3     1  ZINC001141221454    0.0900
      9 N9         -4.7099    1.6697   50.9994 N.3     1  ZINC001141221454   -0.5100
     10 C10        -5.1466    2.5176   49.8599 C.3     1  ZINC001141221454    0.0300
     11 C11        -4.0257    2.3092   48.8085 C.3     1  ZINC001141221454   -0.0700
     12 C12        -2.7583    2.2177   49.6781 C.3     1  ZINC001141221454   -0.1000
     13 C13        -1.5901    3.1733   49.4726 C.3     1  ZINC001141221454   -0.1400
     14 C14        -1.4469    1.6926   49.1087 C.3     1  ZINC001141221454   -0.1800
     15 H15        -0.8289    1.0721   49.7577 H       1  ZINC001141221454    0.1300
     16 C16        -1.4159    1.3350   47.6451 C.2     1  ZINC001141221454    0.5500
     17 O17        -1.6657    2.1779   46.8095 O.2     1  ZINC001141221454   -0.5300
     18 N18        -1.1105    0.0787   47.2647 N.am    1  ZINC001141221454   -0.7300
     19 C19        -1.0821   -0.2694   45.8419 C.3     1  ZINC001141221454    0.1700
     20 C20         0.2769    0.0493   45.2738 C.ar    1  ZINC001141221454   -0.1600
     21 C21         0.4085    0.4577   43.9556 C.ar    1  ZINC001141221454   -0.0600
     22 C22         1.6784    0.7408   43.4760 C.ar    1  ZINC001141221454   -0.1700
     23 C23         2.7629    0.6073   44.3218 C.ar    1  ZINC001141221454    0.1100
     24 N24         2.6002    0.2161   45.5709 N.ar    1  ZINC001141221454   -0.4800
     25 C25         1.4074   -0.0563   46.0622 C.ar    1  ZINC001141221454    0.1200
     26 C26        -3.2396    1.8270   51.0809 C.3     1  ZINC001141221454    0.0700
     27 C27        -7.8062    2.5975   52.1820 C.ar    1  ZINC001141221454    0.0900
     28 F28        -7.5016    3.9127   52.1299 F       1  ZINC001141221454   -0.1300
     29 H29       -11.6942    3.9075   51.0345 H       1  ZINC001141221454    0.1000
     30 H30       -10.3139    3.3152   50.0793 H       1  ZINC001141221454    0.0600
     31 H31       -11.4319    2.1577   50.8399 H       1  ZINC001141221454    0.0600
     32 H32       -10.4751    0.5212   52.2359 H       1  ZINC001141221454    0.1400
     33 H33        -8.6704   -1.1498   52.3373 H       1  ZINC001141221454    0.1300
     34 H34        -6.3187   -0.4266   52.3426 H       1  ZINC001141221454    0.1300
     35 H35        -5.3063    3.1800   52.3324 H       1  ZINC001141221454    0.0600
     36 H36        -4.8395    1.6415   53.0960 H       1  ZINC001141221454    0.0900
     37 H37        -6.1060    2.1754   49.4719 H       1  ZINC001141221454    0.0800
     38 H38        -5.2031    3.5642   50.1592 H       1  ZINC001141221454    0.0500
     39 H39        -4.1822    1.3832   48.2551 H       1  ZINC001141221454    0.0900
     40 H40        -3.9686    3.1608   48.1306 H       1  ZINC001141221454    0.0700
     41 H41        -1.6627    3.8884   48.6531 H       1  ZINC001141221454    0.1000
     42 H42        -1.0663    3.5266   50.3607 H       1  ZINC001141221454    0.1100
     43 H43        -0.9094   -0.5951   47.9329 H       1  ZINC001141221454    0.4000
     44 H44        -1.2846   -1.3338   45.7241 H       1  ZINC001141221454    0.0800
     45 H45        -1.8413    0.3058   45.3120 H       1  ZINC001141221454    0.0800
     46 H46        -0.4575    0.5529   43.3172 H       1  ZINC001141221454    0.1400
     47 H47         1.8181    1.0612   42.4541 H       1  ZINC001141221454    0.1400
     48 H48         3.7553    0.8254   43.9559 H       1  ZINC001141221454    0.1600
     49 H49         1.3134   -0.3741   47.0901 H       1  ZINC001141221454    0.1600
     50 H50        -2.9875    2.6122   51.7937 H       1  ZINC001141221454    0.0500
     51 H51        -2.7802    0.8862   51.3841 H       1  ZINC001141221454    0.0900
@<TRIPOS>BOND
     1     1     2    1
     2     1    29    1
     3     1    30    1
     4     1    31    1
     5     2     3    1
     6     3    27   ar
     7     3     4   ar
     8     4     5   ar
     9     4    32    1
    10     5     6   ar
    11     5    33    1
    12     6     7   ar
    13     6    34    1
    14     7     8    1
    15     7    27   ar
    16     8     9    1
    17     8    35    1
    18     8    36    1
    19     9    26    1
    20     9    10    1
    21    10    11    1
    22    10    37    1
    23    10    38    1
    24    11    12    1
    25    11    39    1
    26    11    40    1
    27    12    14    1
    28    12    13    1
    29    12    26    1
    30    13    14    1
    31    13    41    1
    32    13    42    1
    33    14    15    1
    34    14    16    1
    35    16    17    2
    36    16    18   am
    37    18    19    1
    38    18    43    1
    39    19    20    1
    40    19    44    1
    41    19    45    1
    42    20    25   ar
    43    20    21   ar
    44    21    22   ar
    45    21    46    1
    46    22    23   ar
    47    22    47    1
    48    23    24   ar
    49    23    48    1
    50    24    25   ar
    51    25    49    1
    52    26    50    1
    53    26    51    1
    54    27    28    1
@<TRIPOS>SUBSTRUCTURE
     1 ZINC001141221454        1 TEMP              0 ****  ****    0 ROOT


##########                                Name:    ZINC000944933040
##########                DOCK_Rotatable_Bonds:                   4
##########                         Heavy_Atoms:                  26
##########                    Molecular_Weight:             354.449
##########                DOCK_Rotatable_Bonds:                   4
##########                       Formal_Charge:           0.0100002
##########                     HBond_Acceptors:                   5
##########                        HBond_Donors:                   0
##########                         Heavy_Atoms:                  26
##########                          Grid_Score:          -31.052696
##########                     Grid_vdw_energy:          -30.566542
##########                      Grid_es_energy:           -0.486154
##########           Internal_energy_repulsive:            8.584285

@<TRIPOS>MOLECULE
ZINC000944933040
 52 57 1 0 0
SMALL
USER_CHARGES


@<TRIPOS>ATOM
      1 O1         -0.8839    3.8494   48.9687 O.2     1  ZINC000944933040   -0.5200
      2 C2         -1.8393    3.1422   48.7114 C.2     1  ZINC000944933040    0.6400
      3 C3         -1.7760    2.2246   47.6137 C.1     1  ZINC000944933040   -0.2200
      4 C4         -1.7239    1.4724   46.7140 C.1     1  ZINC000944933040   -0.0400
      5 C5         -1.6588    0.5292   45.5857 C.3     1  ZINC000944933040   -0.0700
      6 C6         -0.2777    0.0169   45.1721 C.3     1  ZINC000944933040   -0.1600
      7 C7         -1.2543   -0.9139   45.8938 C.3     1  ZINC000944933040   -0.1600
      8 N8         -2.9558    3.2182   49.4625 N.am    1  ZINC000944933040   -0.6000
      9 C9         -3.0344    4.1602   50.5868 C.3     1  ZINC000944933040    0.1100
     10 C10        -3.3887    3.3809   51.8591 C.3     1  ZINC000944933040   -0.1200
     11 C11        -4.6353    2.5389   51.5988 C.3     1  ZINC000944933040   -0.0900
     12 C12        -5.2123    1.8872   52.8631 C.3     1  ZINC000944933040    0.1200
     13 N13        -6.5352    2.2743   52.3334 N.am    1  ZINC000944933040   -0.6400
     14 C14        -7.7916    1.8185   52.5068 C.2     1  ZINC000944933040    0.5500
     15 O15        -8.7143    2.3468   51.9233 O.2     1  ZINC000944933040   -0.5300
     16 C16        -8.0501    0.6524   53.4258 C.3     1  ZINC000944933040   -0.1300
     17 H17        -7.1193    0.2977   53.8683 H       1  ZINC000944933040    0.1100
     18 C18        -8.7703   -0.4932   52.6699 C.3     1  ZINC000944933040   -0.1300
     19 C19       -10.1203   -0.6179   53.4379 C.3     1  ZINC000944933040    0.0900
     20 H20       -10.9328   -1.0859   52.8820 H       1  ZINC000944933040    0.1300
     21 O21       -10.3470    0.7715   53.8447 O.3     1  ZINC000944933040   -0.3600
     22 C22        -9.0757    1.0391   54.5332 C.3     1  ZINC000944933040    0.1200
     23 H23        -8.9693    2.0375   54.9574 H       1  ZINC000944933040    0.1400
     24 C24        -9.0347   -0.1314   55.5610 C.3     1  ZINC000944933040   -0.2000
     25 H25        -8.1214   -0.2790   56.1374 H       1  ZINC000944933040    0.1200
     26 C26       -10.3745   -0.6396   56.0974 C.3     1  ZINC000944933040   -0.1300
     27 C27        -9.7617   -1.2958   54.7942 C.3     1  ZINC000944933040   -0.2000
     28 H28        -9.4230   -2.3318   54.8088 H       1  ZINC000944933040    0.1300
     29 C29        -5.9300    3.3615   51.5383 C.3     1  ZINC000944933040    0.1100
     30 C30        -4.4729    1.5694   50.4307 C.3     1  ZINC000944933040   -0.1100
     31 C31        -4.1134    2.3647   49.1645 C.3     1  ZINC000944933040    0.1100
     32 H32        -2.3939    0.6884   44.7969 H       1  ZINC000944933040    0.1400
     33 H33        -0.1041   -0.1609   44.1108 H       1  ZINC000944933040    0.1100
     34 H34         0.5826    0.3783   45.7354 H       1  ZINC000944933040    0.1000
     35 H35        -1.0365   -1.1649   46.9319 H       1  ZINC000944933040    0.1000
     36 H36        -1.7231   -1.7041   45.3073 H       1  ZINC000944933040    0.1100
     37 H37        -2.0719    4.6546   50.7173 H       1  ZINC000944933040    0.0900
     38 H38        -3.8057    4.9039   50.3872 H       1  ZINC000944933040    0.0800
     39 H39        -2.5584    2.7286   52.1299 H       1  ZINC000944933040    0.0800
     40 H40        -3.5843    4.0801   52.6720 H       1  ZINC000944933040    0.0900
     41 H41        -5.0565    0.8096   52.9123 H       1  ZINC000944933040    0.0800
     42 H42        -4.9405    2.4006   53.7854 H       1  ZINC000944933040    0.0900
     43 H43        -8.9422   -0.2207   51.6286 H       1  ZINC000944933040    0.0800
     44 H44        -8.2000   -1.4196   52.7386 H       1  ZINC000944933040    0.0900
     45 H45       -10.3553   -1.2437   57.0045 H       1  ZINC000944933040    0.1000
     46 H46       -11.2394    0.0149   55.9886 H       1  ZINC000944933040    0.1000
     47 H47        -5.8716    4.3129   52.0671 H       1  ZINC000944933040    0.0900
     48 H48        -6.3446    3.4556   50.5347 H       1  ZINC000944933040    0.0800
     49 H49        -3.6778    0.8583   50.6552 H       1  ZINC000944933040    0.0800
     50 H50        -5.4080    1.0332   50.2695 H       1  ZINC000944933040    0.0800
     51 H51        -4.9618    2.9811   48.8670 H       1  ZINC000944933040    0.0700
     52 H52        -3.8600    1.6749   48.3594 H       1  ZINC000944933040    0.1000
@<TRIPOS>BOND
     1     1     2    2
     2     2     3    1
     3     2     8   am
     4     3     4    3
     5     4     5    1
     6     5     7    1
     7     5     6    1
     8     5    32    1
     9     6     7    1
    10     6    33    1
    11     6    34    1
    12     7    35    1
    13     7    36    1
    14     8    31    1
    15     8     9    1
    16     9    10    1
    17     9    37    1
    18     9    38    1
    19    10    11    1
    20    10    39    1
    21    10    40    1
    22    11    29    1
    23    11    12    1
    24    11    30    1
    25    12    13    1
    26    12    41    1
    27    12    42    1
    28    13    14   am
    29    13    29    1
    30    14    15    2
    31    14    16    1
    32    16    17    1
    33    16    22    1
    34    16    18    1
    35    18    19    1
    36    18    43    1
    37    18    44    1
    38    19    20    1
    39    19    27    1
    40    19    21    1
    41    21    22    1
    42    22    23    1
    43    22    24    1
    44    24    25    1
    45    24    27    1
    46    24    26    1
    47    26    27    1
    48    26    45    1
    49    26    46    1
    50    27    28    1
    51    29    47    1
    52    29    48    1
    53    30    31    1
    54    30    49    1
    55    30    50    1
    56    31    51    1
    57    31    52    1
@<TRIPOS>SUBSTRUCTURE
     1 ZINC000944933040        1 TEMP              0 ****  ****    0 ROOT


##########                                Name:    ZINC000188380122
##########                DOCK_Rotatable_Bonds:                   6
##########                         Heavy_Atoms:                  27
##########                    Molecular_Weight:             396.433
##########                DOCK_Rotatable_Bonds:                   6
##########                       Formal_Charge:           0.0299998
##########                     HBond_Acceptors:                   8
##########                        HBond_Donors:                   1
##########                         Heavy_Atoms:                  27
##########                          Grid_Score:          -31.048891
##########                     Grid_vdw_energy:          -29.949339
##########                      Grid_es_energy:           -1.099553
##########           Internal_energy_repulsive:            9.171214

@<TRIPOS>MOLECULE
ZINC000188380122
 46 49 1 0 0
SMALL
USER_CHARGES


@<TRIPOS>ATOM
      1 O1         -2.4284    0.9579   50.4494 O.2     1  ZINC000188380122   -0.5200
      2 C2         -2.3047    2.1217   50.1313 C.2     1  ZINC000188380122    0.5200
      3 C3         -3.2754    3.1516   50.6490 C.3     1  ZINC000188380122   -0.0700
      4 C4         -4.6619    2.5620   50.6844 C.2     1  ZINC000188380122    0.0900
      5 C5         -5.4160    2.4540   49.5854 C.2     1  ZINC000188380122   -0.2400
      6 S6         -6.9528    1.7213   50.0414 S.3     1  ZINC000188380122    0.1000
      7 C7         -6.4081    1.6321   51.7145 C.2     1  ZINC000188380122    0.1100
      8 C8         -7.1918    1.0880   52.8442 C.ar    1  ZINC000188380122   -0.0200
      9 C9         -6.6660    1.1100   54.1365 C.ar    1  ZINC000188380122   -0.0400
     10 C10        -7.4025    0.6009   55.1865 C.ar    1  ZINC000188380122   -0.1200
     11 C11        -8.6594    0.0693   54.9600 C.ar    1  ZINC000188380122   -0.0600
     12 C12        -9.1865    0.0446   53.6807 C.ar    1  ZINC000188380122   -0.1800
     13 C13       -10.5567   -0.5360   53.4433 C.3     1  ZINC000188380122    0.5100
     14 F14       -11.5153    0.4789   53.5333 F       1  ZINC000188380122   -0.1700
     15 F15       -10.6051   -1.1116   52.1691 F       1  ZINC000188380122   -0.1700
     16 F16       -10.8218   -1.5147   54.4073 F       1  ZINC000188380122   -0.1700
     17 C17        -8.4627    0.5554   52.6233 C.ar    1  ZINC000188380122   -0.0500
     18 N18        -5.2024    2.1174   51.7955 N.2     1  ZINC000188380122   -0.4300
     19 N19        -1.2958    2.4949   49.3192 N.am    1  ZINC000188380122   -0.7200
     20 C20        -0.3522    1.4937   48.8159 C.3     1  ZINC000188380122    0.1300
     21 H21         0.0372    0.8458   49.6013 H       1  ZINC000188380122    0.1200
     22 C22         0.7384    2.0783   47.9008 C.3     1  ZINC000188380122   -0.1800
     23 C23         0.5694    0.8145   47.0493 C.3     1  ZINC000188380122    0.0900
     24 H24         1.1858   -0.0056   47.4178 H       1  ZINC000188380122    0.1200
     25 O25         0.7264    0.9938   45.6642 O.3     1  ZINC000188380122   -0.3700
     26 C26        -0.2313    1.7496   44.9462 C.3     1  ZINC000188380122    0.0700
     27 C27        -1.6508    1.3115   45.3037 C.3     1  ZINC000188380122   -0.1600
     28 C28        -1.8743    1.5513   46.8001 C.3     1  ZINC000188380122   -0.1100
     29 C29        -0.8643    0.7275   47.5793 C.3     1  ZINC000188380122   -0.1500
     30 H30        -1.2044   -0.2865   47.7898 H       1  ZINC000188380122    0.0900
     31 H31        -2.9831    3.4532   51.6549 H       1  ZINC000188380122    0.1100
     32 H32        -3.2672    4.0214   49.9921 H       1  ZINC000188380122    0.1100
     33 H33        -5.1324    2.7628   48.5901 H       1  ZINC000188380122    0.1800
     34 H34        -5.6845    1.5240   54.3145 H       1  ZINC000188380122    0.1500
     35 H35        -6.9969    0.6174   56.1872 H       1  ZINC000188380122    0.1400
     36 H36        -9.2316   -0.3284   55.7850 H       1  ZINC000188380122    0.1500
     37 H37        -8.8752    0.5355   51.6254 H       1  ZINC000188380122    0.1400
     38 H38        -1.1947    3.4263   49.0679 H       1  ZINC000188380122    0.4000
     39 H39         0.4382    2.9937   47.3908 H       1  ZINC000188380122    0.0900
     40 H40         1.7150    2.1577   48.3783 H       1  ZINC000188380122    0.0800
     41 H41        -0.1102    2.8052   45.1892 H       1  ZINC000188380122    0.0500
     42 H42        -0.0712    1.6081   43.8773 H       1  ZINC000188380122    0.1000
     43 H43        -2.3695    1.8949   44.7283 H       1  ZINC000188380122    0.0800
     44 H44        -1.7738    0.2517   45.0806 H       1  ZINC000188380122    0.0800
     45 H45        -1.7356    2.6087   47.0253 H       1  ZINC000188380122    0.0700
     46 H46        -2.8850    1.2472   47.0719 H       1  ZINC000188380122    0.0800
@<TRIPOS>BOND
     1     1     2    2
     2     2     3    1
     3     2    19   am
     4     3     4    1
     5     3    31    1
     6     3    32    1
     7     4    18    1
     8     4     5    2
     9     5     6    1
    10     5    33    1
    11     6     7    1
    12     7     8    1
    13     7    18    2
    14     8    17   ar
    15     8     9   ar
    16     9    10   ar
    17     9    34    1
    18    10    11   ar
    19    10    35    1
    20    11    12   ar
    21    11    36    1
    22    12    13    1
    23    12    17   ar
    24    13    14    1
    25    13    15    1
    26    13    16    1
    27    17    37    1
    28    19    20    1
    29    19    38    1
    30    20    21    1
    31    20    29    1
    32    20    22    1
    33    22    23    1
    34    22    39    1
    35    22    40    1
    36    23    24    1
    37    23    29    1
    38    23    25    1
    39    25    26    1
    40    26    27    1
    41    26    41    1
    42    26    42    1
    43    27    28    1
    44    27    43    1
    45    27    44    1
    46    28    29    1
    47    28    45    1
    48    28    46    1
    49    29    30    1
@<TRIPOS>SUBSTRUCTURE
     1 ZINC000188380122        1 TEMP              0 ****  ****    0 ROOT


##########                                Name:    ZINC000373864439
##########                DOCK_Rotatable_Bonds:                   7
##########                         Heavy_Atoms:                  23
##########                    Molecular_Weight:              344.45
##########                DOCK_Rotatable_Bonds:                   7
##########                       Formal_Charge:          -0.0300001
##########                     HBond_Acceptors:                   7
##########                        HBond_Donors:                   1
##########                         Heavy_Atoms:                  23
##########                          Grid_Score:          -31.048044
##########                     Grid_vdw_energy:          -29.467226
##########                      Grid_es_energy:           -1.580819
##########           Internal_energy_repulsive:           18.206038

@<TRIPOS>MOLECULE
ZINC000373864439
 48 49 1 0 0
SMALL
USER_CHARGES


@<TRIPOS>ATOM
      1 C1         -0.6336    0.8943   45.7181 C.3     1  ZINC000373864439   -0.1500
      2 C2         -1.0821    0.4858   47.1227 C.3     1  ZINC000373864439   -0.6300
      3 S3         -2.0124    1.8464   47.8801 S.o2    1  ZINC000373864439    2.6100
      4 O4         -1.1465    2.9286   48.1938 O.2     1  ZINC000373864439   -0.9500
      5 O5         -3.2334    2.0627   47.1860 O.2     1  ZINC000373864439   -0.9600
      6 N6         -2.4800    1.2565   49.3551 N.am    1  ZINC000373864439   -1.1200
      7 C7         -3.2665    2.0948   50.2634 C.3     1  ZINC000373864439    0.1100
      8 C8         -4.7572    1.8679   50.0045 C.3     1  ZINC000373864439    0.0500
      9 N9         -5.4148    1.4608   51.2534 N.3     1  ZINC000373864439   -0.5300
     10 C10        -6.3551    0.3577   51.0177 C.3     1  ZINC000373864439    0.0400
     11 C11        -6.9105   -0.1356   52.3557 C.3     1  ZINC000373864439   -0.1300
     12 C12        -7.6190    1.0209   53.0662 C.3     1  ZINC000373864439    0.1800
     13 F13        -8.7001    1.4540   52.2908 F       1  ZINC000373864439   -0.2100
     14 C14        -8.1175    0.5565   54.4105 C.ar    1  ZINC000373864439   -0.1500
     15 C15        -7.5457    1.0486   55.5674 C.ar    1  ZINC000373864439   -0.0700
     16 C16        -8.0024    0.6225   56.8013 C.ar    1  ZINC000373864439   -0.1600
     17 C17        -9.0323   -0.2963   56.8800 C.ar    1  ZINC000373864439   -0.0700
     18 C18        -9.6080   -0.7913   55.7256 C.ar    1  ZINC000373864439   -0.2100
     19 C19        -9.1553   -0.3614   54.4869 C.ar    1  ZINC000373864439    0.1400
     20 O20        -9.7198   -0.8467   53.3500 O.3     1  ZINC000373864439   -0.3100
     21 C21       -11.1447   -0.7908   53.2582 C.3     1  ZINC000373864439    0.0200
     22 C22        -6.6309    2.1750   53.2562 C.3     1  ZINC000373864439   -0.1300
     23 C23        -6.0836    2.6014   51.8922 C.3     1  ZINC000373864439    0.0600
     24 H24         0.0019    1.7776   45.7821 H       1  ZINC000373864439    0.0700
     25 H25        -0.0746    0.0767   45.2630 H       1  ZINC000373864439    0.0800
     26 H26        -1.5086    1.1198   45.1085 H       1  ZINC000373864439    0.0700
     27 H27        -1.7176   -0.3974   47.0586 H       1  ZINC000373864439    0.1300
     28 H28        -0.2070    0.2604   47.7323 H       1  ZINC000373864439    0.1300
     29 H29        -2.2331    0.3560   49.6178 H       1  ZINC000373864439    0.4200
     30 H30        -3.0326    1.8315   51.2950 H       1  ZINC000373864439    0.0700
     31 H31        -3.0235    3.1435   50.0920 H       1  ZINC000373864439    0.0900
     32 H32        -5.2077    2.7917   49.6411 H       1  ZINC000373864439    0.0900
     33 H33        -4.8811    1.0846   49.2566 H       1  ZINC000373864439    0.0400
     34 H34        -7.1754    0.7074   50.3908 H       1  ZINC000373864439    0.0400
     35 H35        -5.8376   -0.4597   50.5157 H       1  ZINC000373864439    0.0900
     36 H36        -7.6202   -0.9438   52.1793 H       1  ZINC000373864439    0.0800
     37 H37        -6.0923   -0.4983   52.9778 H       1  ZINC000373864439    0.1000
     38 H38        -6.7410    1.7665   55.5086 H       1  ZINC000373864439    0.1300
     39 H39        -7.5535    1.0079   57.7047 H       1  ZINC000373864439    0.1300
     40 H40        -9.3870   -0.6278   57.8448 H       1  ZINC000373864439    0.1300
     41 H41       -10.4123   -1.5093   55.7877 H       1  ZINC000373864439    0.1300
     42 H42       -11.4640   -1.2089   52.3035 H       1  ZINC000373864439    0.1000
     43 H43       -11.5841   -1.3672   54.0724 H       1  ZINC000373864439    0.0600
     44 H44       -11.4730    0.2462   53.3287 H       1  ZINC000373864439    0.0600
     45 H45        -7.1409    3.0176   53.7233 H       1  ZINC000373864439    0.0800
     46 H46        -5.8083    1.8486   53.8925 H       1  ZINC000373864439    0.1000
     47 H47        -5.3689    3.4135   52.0253 H       1  ZINC000373864439    0.0800
     48 H48        -6.9051    2.9406   51.2612 H       1  ZINC000373864439    0.0400
@<TRIPOS>BOND
     1     1     2    1
     2     1    24    1
     3     1    25    1
     4     1    26    1
     5     2     3    1
     6     2    27    1
     7     2    28    1
     8     3     4    2
     9     3     5    2
    10     3     6   am
    11     6     7    1
    12     6    29    1
    13     7     8    1
    14     7    30    1
    15     7    31    1
    16     8     9    1
    17     8    32    1
    18     8    33    1
    19     9    23    1
    20     9    10    1
    21    10    11    1
    22    10    34    1
    23    10    35    1
    24    11    12    1
    25    11    36    1
    26    11    37    1
    27    12    13    1
    28    12    14    1
    29    12    22    1
    30    14    19   ar
    31    14    15   ar
    32    15    16   ar
    33    15    38    1
    34    16    17   ar
    35    16    39    1
    36    17    18   ar
    37    17    40    1
    38    18    19   ar
    39    18    41    1
    40    19    20    1
    41    20    21    1
    42    21    42    1
    43    21    43    1
    44    21    44    1
    45    22    23    1
    46    22    45    1
    47    22    46    1
    48    23    47    1
    49    23    48    1
@<TRIPOS>SUBSTRUCTURE
     1 ZINC000373864439        1 TEMP              0 ****  ****    0 ROOT


##########                                Name:    ZINC001570985666
##########                DOCK_Rotatable_Bonds:                   7
##########                         Heavy_Atoms:                  26
##########                    Molecular_Weight:             357.415
##########                DOCK_Rotatable_Bonds:                   7
##########                       Formal_Charge:          -0.0100001
##########                     HBond_Acceptors:                   9
##########                        HBond_Donors:                   3
##########                         Heavy_Atoms:                  26
##########                          Grid_Score:          -31.040188
##########                     Grid_vdw_energy:          -28.365757
##########                      Grid_es_energy:           -2.674430
##########           Internal_energy_repulsive:            9.132312

@<TRIPOS>MOLECULE
ZINC001570985666
 49 52 1 0 0
SMALL
USER_CHARGES


@<TRIPOS>ATOM
      1 C1         -5.6999    2.7701   53.7766 C.3     1  ZINC001570985666   -0.1600
      2 C2         -6.0466    1.5084   52.9835 C.3     1  ZINC001570985666    0.1300
      3 H3         -5.3167    0.7266   53.1934 H       1  ZINC001570985666    0.0800
      4 C4         -6.0577    1.8244   51.4730 C.3     1  ZINC001570985666    0.1400
      5 H5         -6.2278    2.8875   51.3027 H       1  ZINC001570985666    0.1100
      6 N6         -4.8061    1.3945   50.8445 N.am    1  ZINC001570985666   -0.7200
      7 C7         -4.4669    1.8647   49.6278 C.2     1  ZINC001570985666    0.6000
      8 O8         -5.2004    2.6447   49.0510 O.2     1  ZINC001570985666   -0.5300
      9 C9         -3.2075    1.4338   48.9965 C.2     1  ZINC001570985666   -0.2300
     10 C10        -2.2471    0.6183   49.5549 C.2     1  ZINC001570985666    0.0700
     11 N11        -1.2522    0.4629   48.6589 N.pl3   1  ZINC001570985666   -0.5200
     12 C12        -1.5535    1.1690   47.5205 C.2     1  ZINC001570985666    0.0600
     13 C13        -0.7121    1.2513   46.3056 C.2     1  ZINC001570985666    0.2500
     14 N14         0.4057    0.5892   46.0743 N.2     1  ZINC001570985666   -0.3100
     15 N15         0.8348    0.9355   44.9094 N.pl3   1  ZINC001570985666   -0.2200
     16 N16         0.0261    1.7948   44.3951 N.2     1  ZINC001570985666   -0.0400
     17 N17        -0.9400    2.0092   45.2222 N.2     1  ZINC001570985666   -0.2600
     18 C18        -2.7553    1.7744   47.6953 C.2     1  ZINC001570985666   -0.0600
     19 C19        -7.2546    0.9863   50.9514 C.3     1  ZINC001570985666   -0.1500
     20 C20        -8.2449    1.0860   52.1385 C.3     1  ZINC001570985666    0.1000
     21 N21        -7.3940    1.0448   53.3456 N.am    1  ZINC001570985666   -0.6200
     22 C22        -7.7893    0.6499   54.5721 C.2     1  ZINC001570985666    0.5300
     23 O23        -7.0021    0.6579   55.4947 O.2     1  ZINC001570985666   -0.5300
     24 C24        -9.2094    0.1986   54.7971 C.3     1  ZINC001570985666   -0.1300
     25 C25        -9.4934    0.1382   56.2993 C.3     1  ZINC001570985666   -0.1000
     26 C26        -9.7594    1.5145   56.9318 C.3     1  ZINC001570985666   -0.1300
     27 C27       -10.8598    0.8327   57.7621 C.3     1  ZINC001570985666   -0.1400
     28 C28       -10.9524   -0.2115   56.6369 C.3     1  ZINC001570985666   -0.1400
     29 H29        -5.6995    2.5408   54.8422 H       1  ZINC001570985666    0.0700
     30 H30        -4.7127    3.1252   53.4809 H       1  ZINC001570985666    0.0700
     31 H31        -6.4405    3.5431   53.5715 H       1  ZINC001570985666    0.0600
     32 H32        -4.2216    0.7715   51.3039 H       1  ZINC001570985666    0.4000
     33 H33        -2.2847    0.1796   50.5411 H       1  ZINC001570985666    0.1800
     34 H34        -0.4499   -0.0643   48.7967 H       1  ZINC001570985666    0.4300
     35 H35         1.6412    0.6011   44.4865 H       1  ZINC001570985666    0.4800
     36 H36        -3.2678    2.4022   46.9814 H       1  ZINC001570985666    0.1600
     37 H37        -7.6787    1.4296   50.0504 H       1  ZINC001570985666    0.0900
     38 H38        -6.9597   -0.0481   50.7744 H       1  ZINC001570985666    0.0800
     39 H39        -8.7971    2.0247   52.0940 H       1  ZINC001570985666    0.0800
     40 H40        -8.9321    0.2400   52.1313 H       1  ZINC001570985666    0.0800
     41 H41        -9.8938    0.9041   54.3261 H       1  ZINC001570985666    0.0900
     42 H42        -9.3498   -0.7903   54.3608 H       1  ZINC001570985666    0.0900
     43 H43        -8.7636   -0.4606   56.8443 H       1  ZINC001570985666    0.1000
     44 H44        -8.9286    1.8877   57.5306 H       1  ZINC001570985666    0.0700
     45 H45       -10.1394    2.2532   56.2261 H       1  ZINC001570985666    0.0800
     46 H46       -10.5035    0.4248   58.7080 H       1  ZINC001570985666    0.0800
     47 H47       -11.7605    1.4364   57.8727 H       1  ZINC001570985666    0.0700
     48 H48       -11.6585    0.0555   55.8506 H       1  ZINC001570985666    0.0800
     49 H49       -11.0847   -1.2315   56.9976 H       1  ZINC001570985666    0.0700
@<TRIPOS>BOND
     1     1     2    1
     2     1    29    1
     3     1    30    1
     4     1    31    1
     5     2     3    1
     6     2    21    1
     7     2     4    1
     8     4     5    1
     9     4     6    1
    10     4    19    1
    11     6     7   am
    12     6    32    1
    13     7     8    2
    14     7     9    1
    15     9    18    1
    16     9    10    2
    17    10    11    1
    18    10    33    1
    19    11    12    1
    20    11    34    1
    21    12    13    1
    22    12    18    2
    23    13    17    1
    24    13    14    2
    25    14    15    1
    26    15    16    1
    27    15    35    1
    28    16    17    2
    29    18    36    1
    30    19    20    1
    31    19    37    1
    32    19    38    1
    33    20    21    1
    34    20    39    1
    35    20    40    1
    36    21    22   am
    37    22    23    2
    38    22    24    1
    39    24    25    1
    40    24    41    1
    41    24    42    1
    42    25    28    1
    43    25    26    1
    44    25    43    1
    45    26    27    1
    46    26    44    1
    47    26    45    1
    48    27    28    1
    49    27    46    1
    50    27    47    1
    51    28    48    1
    52    28    49    1
@<TRIPOS>SUBSTRUCTURE
     1 ZINC001570985666        1 TEMP              0 ****  ****    0 ROOT


##########                                Name:    ZINC000643274279
##########                DOCK_Rotatable_Bonds:                   6
##########                         Heavy_Atoms:                  29
##########                    Molecular_Weight:             392.454
##########                DOCK_Rotatable_Bonds:                   6
##########                       Formal_Charge:         -0.00999939
##########                     HBond_Acceptors:                   6
##########                        HBond_Donors:                   2
##########                         Heavy_Atoms:                  29
##########                          Grid_Score:          -31.028103
##########                     Grid_vdw_energy:          -28.623161
##########                      Grid_es_energy:           -2.404943
##########           Internal_energy_repulsive:           12.368097

@<TRIPOS>MOLECULE
ZINC000643274279
 53 56 1 0 0
SMALL
USER_CHARGES


@<TRIPOS>ATOM
      1 O1         -9.2447    1.1945   56.2172 O.2     1  ZINC000643274279   -0.4900
      2 C2         -8.1458    0.9971   56.6935 C.2     1  ZINC000643274279    0.5100
      3 N3         -7.0426    1.1789   55.9410 N.am    1  ZINC000643274279   -0.6400
      4 C4         -7.1641    1.5892   54.6105 C.ar    1  ZINC000643274279    0.1300
      5 C5         -7.9318    2.7050   54.2960 C.ar    1  ZINC000643274279   -0.1000
      6 C6         -8.0675    3.1120   52.9799 C.ar    1  ZINC000643274279   -0.1000
      7 C7         -7.4406    2.4075   51.9760 C.ar    1  ZINC000643274279   -0.0600
      8 C8         -7.6438    2.8085   50.5254 C.3     1  ZINC000643274279   -0.0900
      9 C9         -6.3322    3.3454   49.9640 C.3     1  ZINC000643274279   -0.1200
     10 C10        -5.4661    2.2269   49.4045 C.3     1  ZINC000643274279   -0.1100
     11 C11        -4.8593    1.3319   50.4554 C.3     1  ZINC000643274279   -0.1600
     12 C12        -5.9505    0.5857   51.1981 C.2     1  ZINC000643274279    0.4100
     13 O13        -6.2378   -0.5570   50.9120 O.2     1  ZINC000643274279   -0.4400
     14 C14        -6.6484    1.3009   52.2808 C.ar    1  ZINC000643274279   -0.1300
     15 C15        -6.5136    0.8858   53.6071 C.ar    1  ZINC000643274279   -0.1000
     16 C16        -8.0161    0.5586   58.1153 C.2     1  ZINC000643274279    0.5200
     17 O17        -7.1630    1.0485   58.8260 O.2     1  ZINC000643274279   -0.5000
     18 N18        -8.8465   -0.3811   58.6092 N.am    1  ZINC000643274279   -0.5800
     19 C19        -9.9222   -1.0563   57.8606 C.3     1  ZINC000643274279    0.0900
     20 C20       -10.1386   -2.3992   58.6020 C.3     1  ZINC000643274279   -0.1400
     21 C21        -9.9351   -1.9750   60.0805 C.3     1  ZINC000643274279   -0.1200
     22 C22        -8.8254   -0.9072   59.9819 C.3     1  ZINC000643274279    0.1800
     23 H23        -7.8566   -1.3583   60.1965 H       1  ZINC000643274279    0.0900
     24 C24        -9.0988    0.2078   60.9583 C.ar    1  ZINC000643274279   -0.1000
     25 C25        -9.9554    1.2356   60.6099 C.ar    1  ZINC000643274279   -0.0900
     26 C26       -10.2077    2.2589   61.5031 C.ar    1  ZINC000643274279   -0.1400
     27 C27        -9.6011    2.2541   62.7508 C.ar    1  ZINC000643274279    0.1100
     28 O28        -9.8480    3.2593   63.6314 O.3     1  ZINC000643274279   -0.5000
     29 C29        -8.7424    1.2214   63.0981 C.ar    1  ZINC000643274279   -0.1400
     30 C30        -8.4972    0.1980   62.2032 C.ar    1  ZINC000643274279   -0.0900
     31 H31        -6.1643    1.0249   56.3229 H       1  ZINC000643274279    0.4200
     32 H32        -8.4251    3.2568   55.0825 H       1  ZINC000643274279    0.1400
     33 H33        -8.6641    3.9799   52.7407 H       1  ZINC000643274279    0.1400
     34 H34        -7.9580    1.9390   49.9480 H       1  ZINC000643274279    0.0800
     35 H35        -8.4093    3.5821   50.4654 H       1  ZINC000643274279    0.0800
     36 H36        -6.5504    4.0587   49.1691 H       1  ZINC000643274279    0.0800
     37 H37        -5.7867    3.8550   50.7584 H       1  ZINC000643274279    0.0700
     38 H38        -6.0761    1.6159   48.7390 H       1  ZINC000643274279    0.0700
     39 H39        -4.6604    2.6714   48.8202 H       1  ZINC000643274279    0.0800
     40 H40        -4.1917    0.6148   49.9778 H       1  ZINC000643274279    0.0900
     41 H41        -4.2906    1.9375   51.1612 H       1  ZINC000643274279    0.0900
     42 H42        -5.9115    0.0226   53.8493 H       1  ZINC000643274279    0.1300
     43 H43       -10.8334   -0.4589   57.8840 H       1  ZINC000643274279    0.0800
     44 H44        -9.6122   -1.2370   56.8313 H       1  ZINC000643274279    0.1000
     45 H45       -11.1480   -2.7770   58.4394 H       1  ZINC000643274279    0.0900
     46 H46        -9.3941   -3.1361   58.3009 H       1  ZINC000643274279    0.0800
     47 H47       -10.8511   -1.5480   60.4888 H       1  ZINC000643274279    0.0800
     48 H48        -9.6010   -2.8206   60.6818 H       1  ZINC000643274279    0.0900
     49 H49       -10.4274    1.2389   59.6385 H       1  ZINC000643274279    0.1200
     50 H50       -10.8763    3.0619   61.2302 H       1  ZINC000643274279    0.1300
     51 H51        -9.3834    3.1667   64.4744 H       1  ZINC000643274279    0.3900
     52 H52        -8.2687    1.2157   64.0687 H       1  ZINC000643274279    0.1300
     53 H53        -7.8291   -0.6063   62.4732 H       1  ZINC000643274279    0.1300
@<TRIPOS>BOND
     1     1     2    2
     2     2     3   am
     3     2    16    1
     4     3     4    1
     5     3    31    1
     6     4    15   ar
     7     4     5   ar
     8     5     6   ar
     9     5    32    1
    10     6     7   ar
    11     6    33    1
    12     7    14   ar
    13     7     8    1
    14     8     9    1
    15     8    34    1
    16     8    35    1
    17     9    10    1
    18     9    36    1
    19     9    37    1
    20    10    11    1
    21    10    38    1
    22    10    39    1
    23    11    12    1
    24    11    40    1
    25    11    41    1
    26    12    13    2
    27    12    14    1
    28    14    15   ar
    29    15    42    1
    30    16    17    2
    31    16    18   am
    32    18    22    1
    33    18    19    1
    34    19    20    1
    35    19    43    1
    36    19    44    1
    37    20    21    1
    38    20    45    1
    39    20    46    1
    40    21    22    1
    41    21    47    1
    42    21    48    1
    43    22    23    1
    44    22    24    1
    45    24    30   ar
    46    24    25   ar
    47    25    26   ar
    48    25    49    1
    49    26    27   ar
    50    26    50    1
    51    27    28    1
    52    27    29   ar
    53    28    51    1
    54    29    30   ar
    55    29    52    1
    56    30    53    1
@<TRIPOS>SUBSTRUCTURE
     1 ZINC000643274279        1 TEMP              0 ****  ****    0 ROOT


##########                                Name:    ZINC000504638019
##########                DOCK_Rotatable_Bonds:                   8
##########                         Heavy_Atoms:                  24
##########                    Molecular_Weight:             328.454
##########                DOCK_Rotatable_Bonds:                   8
##########                       Formal_Charge:        -1.49012e-08
##########                     HBond_Acceptors:                   4
##########                        HBond_Donors:                   1
##########                         Heavy_Atoms:                  24
##########                          Grid_Score:          -31.010721
##########                     Grid_vdw_energy:          -30.294691
##########                      Grid_es_energy:           -0.716031
##########           Internal_energy_repulsive:           28.357689

@<TRIPOS>MOLECULE
ZINC000504638019
 52 53 1 0 0
SMALL
USER_CHARGES


@<TRIPOS>ATOM
      1 C1         -1.1839    0.4040   44.7832 C.3     1  ZINC000504638019   -0.1200
      2 C2         -1.6306    0.6996   46.1918 C.ar    1  ZINC000504638019   -0.0900
      3 C3         -2.3642    1.8403   46.4593 C.ar    1  ZINC000504638019   -0.1200
      4 C4         -2.7738    2.1114   47.7513 C.ar    1  ZINC000504638019   -0.1100
      5 C5         -2.4502    1.2416   48.7759 C.ar    1  ZINC000504638019   -0.0900
      6 C6         -2.8964    1.5375   50.1846 C.3     1  ZINC000504638019   -0.0600
      7 H7         -2.7928    0.6402   50.7946 H       1  ZINC000504638019    0.0900
      8 C8         -2.0304    2.6549   50.7698 C.3     1  ZINC000504638019   -0.1500
      9 C9         -4.3609    1.9802   50.1733 C.3     1  ZINC000504638019    0.1300
     10 N10        -5.0961    1.2628   51.2178 N.am    1  ZINC000504638019   -0.7000
     11 C11        -6.2268    0.5971   50.9100 C.2     1  ZINC000504638019    0.5100
     12 O12        -6.6352    0.5908   49.7673 O.2     1  ZINC000504638019   -0.5100
     13 C13        -6.9777   -0.1333   51.9759 C.2     1  ZINC000504638019    0.5100
     14 O14        -6.9677   -1.3465   52.0025 O.2     1  ZINC000504638019   -0.5200
     15 N15        -7.6660    0.5554   52.9078 N.am    1  ZINC000504638019   -0.5800
     16 C16        -7.6780    2.0200   52.8759 C.3     1  ZINC000504638019    0.0600
     17 C17        -8.4021   -0.1605   53.9527 C.3     1  ZINC000504638019    0.1100
     18 C18        -9.9053   -0.0186   53.7060 C.3     1  ZINC000504638019   -0.1000
     19 H19       -10.4417   -0.7909   54.2573 H       1  ZINC000504638019    0.0800
     20 C20       -10.1966   -0.1582   52.2103 C.3     1  ZINC000504638019   -0.0800
     21 C21       -11.6146    0.2385   51.9204 C.2     1  ZINC000504638019   -0.1500
     22 C22       -12.3543    0.9279   52.7285 C.2     1  ZINC000504638019   -0.1600
     23 C23       -11.9008    1.4181   54.0724 C.3     1  ZINC000504638019   -0.0900
     24 C24       -10.3754    1.3662   54.1691 C.3     1  ZINC000504638019   -0.1100
     25 C25        -1.7178    0.1002   48.5082 C.ar    1  ZINC000504638019   -0.1100
     26 C26        -1.3114   -0.1728   47.2154 C.ar    1  ZINC000504638019   -0.1200
     27 H27        -1.9487   -0.1836   44.2753 H       1  ZINC000504638019    0.0700
     28 H28        -1.0296    1.3404   44.2469 H       1  ZINC000504638019    0.0700
     29 H29        -0.2506   -0.1583   44.8083 H       1  ZINC000504638019    0.0700
     30 H30        -2.6170    2.5198   45.6589 H       1  ZINC000504638019    0.1200
     31 H31        -3.3464    3.0029   47.9605 H       1  ZINC000504638019    0.1200
     32 H32        -2.3532    2.8689   51.7887 H       1  ZINC000504638019    0.0600
     33 H33        -0.9871    2.3395   50.7779 H       1  ZINC000504638019    0.0600
     34 H34        -2.1340    3.5522   50.1598 H       1  ZINC000504638019    0.0600
     35 H35        -4.4179    3.0525   50.3602 H       1  ZINC000504638019    0.0800
     36 H36        -4.8004    1.7570   49.2010 H       1  ZINC000504638019    0.0800
     37 H37        -4.7689    1.2667   52.1310 H       1  ZINC000504638019    0.4100
     38 H38        -8.4470    2.3621   52.1832 H       1  ZINC000504638019    0.0600
     39 H39        -7.8913    2.4035   53.8736 H       1  ZINC000504638019    0.0700
     40 H40        -6.7048    2.3843   52.5470 H       1  ZINC000504638019    0.1100
     41 H41        -8.1286   -1.2154   53.9320 H       1  ZINC000504638019    0.0900
     42 H42        -8.1524    0.2605   54.9265 H       1  ZINC000504638019    0.0900
     43 H43        -9.5194    0.4854   51.6486 H       1  ZINC000504638019    0.0800
     44 H44       -10.0420   -1.1937   51.9072 H       1  ZINC000504638019    0.0600
     45 H45       -12.0445   -0.0701   50.9790 H       1  ZINC000504638019    0.1000
     46 H46       -13.3606    1.1653   52.4161 H       1  ZINC000504638019    0.1000
     47 H47       -12.2380    2.4448   54.2152 H       1  ZINC000504638019    0.0700
     48 H48       -12.3301    0.7875   54.8508 H       1  ZINC000504638019    0.0700
     49 H49       -10.0677    1.5370   55.2007 H       1  ZINC000504638019    0.0700
     50 H50        -9.9411    2.1290   53.5229 H       1  ZINC000504638019    0.0700
     51 H51        -1.4653   -0.5796   49.3086 H       1  ZINC000504638019    0.1200
     52 H52        -0.7392   -1.0646   47.0063 H       1  ZINC000504638019    0.1200
@<TRIPOS>BOND
     1     1     2    1
     2     1    27    1
     3     1    28    1
     4     1    29    1
     5     2    26   ar
     6     2     3   ar
     7     3     4   ar
     8     3    30    1
     9     4     5   ar
    10     4    31    1
    11     5     6    1
    12     5    25   ar
    13     6     7    1
    14     6     8    1
    15     6     9    1
    16     8    32    1
    17     8    33    1
    18     8    34    1
    19     9    10    1
    20     9    35    1
    21     9    36    1
    22    10    11   am
    23    10    37    1
    24    11    12    2
    25    11    13    1
    26    13    14    2
    27    13    15   am
    28    15    16    1
    29    15    17    1
    30    16    38    1
    31    16    39    1
    32    16    40    1
    33    17    18    1
    34    17    41    1
    35    17    42    1
    36    18    19    1
    37    18    24    1
    38    18    20    1
    39    20    21    1
    40    20    43    1
    41    20    44    1
    42    21    22    2
    43    21    45    1
    44    22    23    1
    45    22    46    1
    46    23    24    1
    47    23    47    1
    48    23    48    1
    49    24    49    1
    50    24    50    1
    51    25    26   ar
    52    25    51    1
    53    26    52    1
@<TRIPOS>SUBSTRUCTURE
     1 ZINC000504638019        1 TEMP              0 ****  ****    0 ROOT


##########                                Name:    ZINC001312809190
##########                DOCK_Rotatable_Bonds:                   6
##########                         Heavy_Atoms:                  29
##########                    Molecular_Weight:             395.501
##########                DOCK_Rotatable_Bonds:                   6
##########                       Formal_Charge:           0.0199995
##########                     HBond_Acceptors:                   6
##########                        HBond_Donors:                   1
##########                         Heavy_Atoms:                  29
##########                          Grid_Score:          -30.995165
##########                     Grid_vdw_energy:          -30.953804
##########                      Grid_es_energy:           -0.041360
##########           Internal_energy_repulsive:           30.319485

@<TRIPOS>MOLECULE
ZINC001312809190
 58 61 1 0 0
SMALL
USER_CHARGES


@<TRIPOS>ATOM
      1 C1        -14.8787   -2.2702   61.2114 C.3     1  ZINC001312809190    0.0300
      2 O2        -13.7987   -1.3731   61.4776 O.3     1  ZINC001312809190   -0.3200
      3 C3        -12.5682   -1.7396   61.0320 C.ar    1  ZINC001312809190    0.1300
      4 C4        -12.4036   -2.9380   60.3535 C.ar    1  ZINC001312809190   -0.2100
      5 C5        -11.1517   -3.3081   59.9010 C.ar    1  ZINC001312809190   -0.0800
      6 C6        -10.0635   -2.4853   60.1245 C.ar    1  ZINC001312809190   -0.1300
      7 C7        -10.2250   -1.2901   60.8012 C.ar    1  ZINC001312809190   -0.0500
      8 C8         -9.0366   -0.3956   61.0436 C.3     1  ZINC001312809190    0.1200
      9 H9         -8.1457   -1.0066   61.1889 H       1  ZINC001312809190    0.0500
     10 C10        -9.2828    0.4524   62.2930 C.3     1  ZINC001312809190   -0.1400
     11 N11        -8.8422    0.4855   59.8842 N.3     1  ZINC001312809190   -0.5300
     12 C12       -10.1307    0.8646   59.2894 C.3     1  ZINC001312809190    0.0300
     13 C13        -9.8974    1.9207   58.2038 C.3     1  ZINC001312809190    0.1400
     14 N14        -8.9022    1.4018   57.2533 N.am    1  ZINC001312809190   -0.6300
     15 C15        -9.1428    1.4088   55.9272 C.2     1  ZINC001312809190    0.7100
     16 O16       -10.1939    1.8483   55.5024 O.2     1  ZINC001312809190   -0.5800
     17 N17        -8.2182    0.9289   55.0721 N.am    1  ZINC001312809190   -0.7300
     18 C18        -8.4798    0.9365   53.6307 C.3     1  ZINC001312809190    0.1800
     19 H19        -9.1944    1.7174   53.3705 H       1  ZINC001312809190    0.1200
     20 C20        -7.1916    1.0976   52.8469 C.ar    1  ZINC001312809190   -0.1900
     21 C21        -6.1237    1.9551   52.9896 C.ar    1  ZINC001312809190   -0.0500
     22 C22        -5.0521    1.8759   52.1174 C.ar    1  ZINC001312809190   -0.1500
     23 C23        -5.0590    0.9344   51.1052 C.ar    1  ZINC001312809190   -0.0800
     24 C24        -6.1297    0.0767   50.9582 C.ar    1  ZINC001312809190   -0.1400
     25 C25        -7.2133    0.1520   51.8294 C.ar    1  ZINC001312809190    0.1100
     26 O26        -8.3651   -0.5733   51.8551 O.3     1  ZINC001312809190   -0.2900
     27 C27        -8.9756   -0.4484   53.1514 C.3     1  ZINC001312809190    0.0800
     28 H28        -8.6269   -1.2356   53.8199 H       1  ZINC001312809190    0.0900
     29 C29       -10.5010   -0.4738   53.0368 C.3     1  ZINC001312809190   -0.1500
     30 C30        -7.6373    0.8755   57.7883 C.3     1  ZINC001312809190    0.1200
     31 C31        -7.9596   -0.1395   58.8901 C.3     1  ZINC001312809190    0.0400
     32 C32       -11.4756   -0.9127   61.2501 C.ar    1  ZINC001312809190   -0.1500
     33 H33       -15.8019   -1.8586   61.6194 H       1  ZINC001312809190    0.1000
     34 H34       -14.9845   -2.4021   60.1346 H       1  ZINC001312809190    0.0600
     35 H35       -14.6737   -3.2340   61.6772 H       1  ZINC001312809190    0.0600
     36 H36       -13.2532   -3.5817   60.1792 H       1  ZINC001312809190    0.1300
     37 H37       -11.0229   -4.2412   59.3726 H       1  ZINC001312809190    0.1300
     38 H38        -9.0857   -2.7764   59.7704 H       1  ZINC001312809190    0.1300
     39 H39       -10.1738    1.0634   62.1476 H       1  ZINC001312809190    0.0700
     40 H40        -9.4271   -0.2013   63.1532 H       1  ZINC001312809190    0.0600
     41 H41        -8.4232    1.0993   62.4682 H       1  ZINC001312809190    0.0600
     42 H42       -10.5997   -0.0144   58.8468 H       1  ZINC001312809190    0.0400
     43 H43       -10.7815    1.2744   60.0618 H       1  ZINC001312809190    0.1000
     44 H44       -10.8328    2.1217   57.6815 H       1  ZINC001312809190    0.1000
     45 H45        -9.5250    2.8381   58.6597 H       1  ZINC001312809190    0.0700
     46 H46        -7.3796    0.5785   55.4110 H       1  ZINC001312809190    0.4000
     47 H47        -6.1226    2.6894   53.7815 H       1  ZINC001312809190    0.1200
     48 H48        -4.2134    2.5475   52.2271 H       1  ZINC001312809190    0.1300
     49 H49        -4.2222    0.8702   50.4256 H       1  ZINC001312809190    0.1300
     50 H50        -6.1274   -0.6557   50.1645 H       1  ZINC001312809190    0.1300
     51 H51       -10.8177   -1.4267   52.6127 H       1  ZINC001312809190    0.0800
     52 H52       -10.9418   -0.3520   54.0262 H       1  ZINC001312809190    0.0800
     53 H53       -10.8304    0.3392   52.3897 H       1  ZINC001312809190    0.0700
     54 H54        -7.0783    0.3855   56.9911 H       1  ZINC001312809190    0.0800
     55 H55        -7.0476    1.6924   58.2042 H       1  ZINC001312809190    0.0800
     56 H56        -7.0357   -0.4578   59.3730 H       1  ZINC001312809190    0.0900
     57 H57        -8.4588   -1.0044   58.4532 H       1  ZINC001312809190    0.0400
     58 H58       -11.6012    0.0209   61.7782 H       1  ZINC001312809190    0.1300
@<TRIPOS>BOND
     1     1     2    1
     2     1    33    1
     3     1    34    1
     4     1    35    1
     5     2     3    1
     6     3    32   ar
     7     3     4   ar
     8     4     5   ar
     9     4    36    1
    10     5     6   ar
    11     5    37    1
    12     6     7   ar
    13     6    38    1
    14     7     8    1
    15     7    32   ar
    16     8     9    1
    17     8    10    1
    18     8    11    1
    19    10    39    1
    20    10    40    1
    21    10    41    1
    22    11    31    1
    23    11    12    1
    24    12    13    1
    25    12    42    1
    26    12    43    1
    27    13    14    1
    28    13    44    1
    29    13    45    1
    30    14    15   am
    31    14    30    1
    32    15    16    2
    33    15    17   am
    34    17    18    1
    35    17    46    1
    36    18    19    1
    37    18    27    1
    38    18    20    1
    39    20    25   ar
    40    20    21   ar
    41    21    22   ar
    42    21    47    1
    43    22    23   ar
    44    22    48    1
    45    23    24   ar
    46    23    49    1
    47    24    25   ar
    48    24    50    1
    49    25    26    1
    50    26    27    1
    51    27    28    1
    52    27    29    1
    53    29    51    1
    54    29    52    1
    55    29    53    1
    56    30    31    1
    57    30    54    1
    58    30    55    1
    59    31    56    1
    60    31    57    1
    61    32    58    1
@<TRIPOS>SUBSTRUCTURE
     1 ZINC001312809190        1 TEMP              0 ****  ****    0 ROOT


##########                                Name:    ZINC000465392830
##########                DOCK_Rotatable_Bonds:                   8
##########                         Heavy_Atoms:                  29
##########                    Molecular_Weight:             419.588
##########                DOCK_Rotatable_Bonds:                   8
##########                       Formal_Charge:           0.0199996
##########                     HBond_Acceptors:                   7
##########                        HBond_Donors:                   0
##########                         Heavy_Atoms:                  29
##########                          Grid_Score:          -30.993034
##########                     Grid_vdw_energy:          -30.824291
##########                      Grid_es_energy:           -0.168742
##########           Internal_energy_repulsive:           49.260853

@<TRIPOS>MOLECULE
ZINC000465392830
 62 64 1 0 0
SMALL
USER_CHARGES


@<TRIPOS>ATOM
      1 C1         -7.3305    1.7364   57.5628 C.3     1  ZINC000465392830    0.0400
      2 O2         -7.8596    0.4624   57.1096 O.3     1  ZINC000465392830   -0.3600
      3 C3         -9.1951    0.3484   57.0368 C.2     1  ZINC000465392830    0.4600
      4 O4         -9.8994    1.2705   57.3739 O.2     1  ZINC000465392830   -0.4900
      5 C5         -9.8159   -0.9297   56.5345 C.3     1  ZINC000465392830    0.1500
      6 H6         -9.0954   -1.4782   55.9279 H       1  ZINC000465392830    0.1100
      7 C7        -10.2669   -1.7983   57.7276 C.3     1  ZINC000465392830   -0.1100
      8 C8        -11.6046   -2.4061   57.2290 C.3     1  ZINC000465392830   -0.0900
      9 H9        -11.4271   -3.2824   56.6054 H       1  ZINC000465392830    0.1000
     10 C10       -12.5226   -2.7495   58.4038 C.3     1  ZINC000465392830   -0.0800
     11 C11       -12.8286   -1.4795   59.2001 C.3     1  ZINC000465392830   -0.1200
     12 C12       -13.7466   -1.8229   60.3749 C.3     1  ZINC000465392830   -0.1200
     13 C13       -15.0521   -2.4193   59.8447 C.3     1  ZINC000465392830   -0.1200
     14 C14       -14.7460   -3.6893   59.0483 C.3     1  ZINC000465392830   -0.1200
     15 C15       -13.8280   -3.3459   57.8735 C.3     1  ZINC000465392830   -0.1200
     16 C16       -12.1845   -1.2380   56.3930 C.3     1  ZINC000465392830    0.1000
     17 N17       -11.0121   -0.6243   55.7359 N.am    1  ZINC000465392830   -0.6100
     18 C18       -11.0376    0.0969   54.5977 C.2     1  ZINC000465392830    0.5400
     19 O19       -12.0884    0.2849   54.0223 O.2     1  ZINC000465392830   -0.5300
     20 C20        -9.7601    0.6698   54.0400 C.3     1  ZINC000465392830   -0.1300
     21 C21        -9.7734    0.5559   52.5143 C.3     1  ZINC000465392830   -0.0600
     22 C22        -8.5677    1.2602   51.9474 C.ar    1  ZINC000465392830   -0.2000
     23 C23        -7.3714    0.5830   51.7682 C.ar    1  ZINC000465392830    0.2000
     24 C24        -7.2569   -0.8734   52.1380 C.3     1  ZINC000465392830   -0.1100
     25 N25        -6.3321    1.2305   51.2685 N.ar    1  ZINC000465392830   -0.5000
     26 C26        -6.4256    2.5114   50.9406 C.ar    1  ZINC000465392830    0.3000
     27 S27        -5.0158    3.3349   50.2779 S.3     1  ZINC000465392830    0.0000
     28 C28        -4.1415    1.9263   49.5517 C.3     1  ZINC000465392830   -0.1400
     29 N29        -7.5548    3.1873   51.0990 N.ar    1  ZINC000465392830   -0.5300
     30 C30        -8.6326    2.5976   51.5887 C.ar    1  ZINC000465392830    0.2000
     31 C31        -9.9124    3.3734   51.7657 C.3     1  ZINC000465392830   -0.1100
     32 H32        -7.6553    2.5263   56.8856 H       1  ZINC000465392830    0.0600
     33 H33        -7.6975    1.9454   58.5677 H       1  ZINC000465392830    0.0600
     34 H34        -6.2414    1.6937   57.5753 H       1  ZINC000465392830    0.1000
     35 H35        -9.5384   -2.5834   57.9302 H       1  ZINC000465392830    0.1000
     36 H36       -10.4290   -1.1834   58.6129 H       1  ZINC000465392830    0.0800
     37 H37       -12.0287   -3.4742   59.0511 H       1  ZINC000465392830    0.0800
     38 H38       -11.8987   -1.0546   59.5778 H       1  ZINC000465392830    0.0600
     39 H39       -13.3226   -0.7548   58.5528 H       1  ZINC000465392830    0.0700
     40 H40       -13.2527   -2.5475   61.0223 H       1  ZINC000465392830    0.0600
     41 H41       -13.9646   -0.9180   60.9422 H       1  ZINC000465392830    0.0600
     42 H42       -15.7060   -2.6640   60.6817 H       1  ZINC000465392830    0.0600
     43 H43       -15.5460   -1.6947   59.1973 H       1  ZINC000465392830    0.0600
     44 H44       -14.2521   -4.4140   59.6957 H       1  ZINC000465392830    0.0600
     45 H45       -15.6760   -4.1143   58.6705 H       1  ZINC000465392830    0.0600
     46 H46       -14.3220   -2.6213   57.2261 H       1  ZINC000465392830    0.0700
     47 H47       -13.6101   -4.2508   57.3062 H       1  ZINC000465392830    0.0600
     48 H48       -12.8818   -1.6161   55.6455 H       1  ZINC000465392830    0.0900
     49 H49       -12.6783   -0.5153   57.0426 H       1  ZINC000465392830    0.0800
     50 H50        -9.6773    1.7186   54.3254 H       1  ZINC000465392830    0.1000
     51 H51        -8.9095    0.1167   54.4382 H       1  ZINC000465392830    0.1000
     52 H52        -9.7479   -0.4955   52.2282 H       1  ZINC000465392830    0.0900
     53 H53       -10.6806    1.0169   52.1235 H       1  ZINC000465392830    0.0900
     54 H54        -7.5208   -1.4884   51.2777 H       1  ZINC000465392830    0.0900
     55 H55        -6.2326   -1.0920   52.4403 H       1  ZINC000465392830    0.0900
     56 H56        -7.9340   -1.0931   52.9633 H       1  ZINC000465392830    0.0900
     57 H57        -3.9056    1.2033   50.3326 H       1  ZINC000465392830    0.0900
     58 H58        -4.7736    1.4550   48.7992 H       1  ZINC000465392830    0.0900
     59 H59        -3.2186    2.2723   49.0862 H       1  ZINC000465392830    0.1100
     60 H60       -10.5104    3.2997   50.8574 H       1  ZINC000465392830    0.0900
     61 H61       -10.4736    2.9618   52.6046 H       1  ZINC000465392830    0.0900
     62 H62        -9.6788    4.4196   51.9631 H       1  ZINC000465392830    0.0800
@<TRIPOS>BOND
     1     1     2    1
     2     1    32    1
     3     1    33    1
     4     1    34    1
     5     2     3    1
     6     3     4    2
     7     3     5    1
     8     5     6    1
     9     5    17    1
    10     5     7    1
    11     7     8    1
    12     7    35    1
    13     7    36    1
    14     8     9    1
    15     8    10    1
    16     8    16    1
    17    10    15    1
    18    10    11    1
    19    10    37    1
    20    11    12    1
    21    11    38    1
    22    11    39    1
    23    12    13    1
    24    12    40    1
    25    12    41    1
    26    13    14    1
    27    13    42    1
    28    13    43    1
    29    14    15    1
    30    14    44    1
    31    14    45    1
    32    15    46    1
    33    15    47    1
    34    16    17    1
    35    16    48    1
    36    16    49    1
    37    17    18   am
    38    18    19    2
    39    18    20    1
    40    20    21    1
    41    20    50    1
    42    20    51    1
    43    21    22    1
    44    21    52    1
    45    21    53    1
    46    22    30   ar
    47    22    23   ar
    48    23    24    1
    49    23    25   ar
    50    24    54    1
    51    24    55    1
    52    24    56    1
    53    25    26   ar
    54    26    27    1
    55    26    29   ar
    56    27    28    1
    57    28    57    1
    58    28    58    1
    59    28    59    1
    60    29    30   ar
    61    30    31    1
    62    31    60    1
    63    31    61    1
    64    31    62    1
@<TRIPOS>SUBSTRUCTURE
     1 ZINC000465392830        1 TEMP              0 ****  ****    0 ROOT


##########                                Name:    ZINC001011676549
##########                DOCK_Rotatable_Bonds:                   6
##########                         Heavy_Atoms:                  24
##########                    Molecular_Weight:             330.387
##########                DOCK_Rotatable_Bonds:                   6
##########                       Formal_Charge:        -1.49012e-07
##########                     HBond_Acceptors:                   7
##########                        HBond_Donors:                   1
##########                         Heavy_Atoms:                  24
##########                          Grid_Score:          -30.989422
##########                     Grid_vdw_energy:          -31.115063
##########                      Grid_es_energy:            0.125641
##########           Internal_energy_repulsive:           20.835798

@<TRIPOS>MOLECULE
ZINC001011676549
 46 48 1 0 0
SMALL
USER_CHARGES


@<TRIPOS>ATOM
      1 C1         -3.1733    2.3068   47.6640 C.3     1  ZINC001011676549   -0.1700
      2 C2         -2.2397    1.5542   48.6143 C.3     1  ZINC001011676549    0.1300
      3 H3         -2.7002    0.6144   48.9189 H       1  ZINC001011676549    0.0900
      4 C4         -0.8923    1.2762   47.9154 C.3     1  ZINC001011676549    0.1400
      5 H5         -0.4905    0.3106   48.2225 H       1  ZINC001011676549    0.1100
      6 N6         -1.0421    1.3337   46.4592 N.am    1  ZINC001011676549   -0.7200
      7 C7         -1.2016    0.1969   45.7528 C.2     1  ZINC001011676549    0.5200
      8 O8         -1.2196   -0.8736   46.3225 O.2     1  ZINC001011676549   -0.5300
      9 C9         -1.3575    0.2562   44.2550 C.3     1  ZINC001011676549   -0.0900
     10 C10         0.0015    0.2017   43.6060 C.ar    1  ZINC001011676549   -0.1800
     11 C11         1.0869    0.8475   44.1768 C.ar    1  ZINC001011676549    0.1600
     12 N12         2.2651    0.7776   43.5783 N.ar    1  ZINC001011676549   -0.5200
     13 C13         2.4127    0.1051   42.4545 C.ar    1  ZINC001011676549    0.3000
     14 N14         1.4036   -0.5211   41.8832 N.ar    1  ZINC001011676549   -0.5200
     15 C15         0.1973   -0.5001   42.4271 C.ar    1  ZINC001011676549    0.1600
     16 C16         0.0084    2.4326   48.4245 C.3     1  ZINC001011676549   -0.1400
     17 C17        -0.5013    2.6075   49.8767 C.3     1  ZINC001011676549    0.1000
     18 N18        -1.9591    2.3802   49.7977 N.am    1  ZINC001011676549   -0.6100
     19 C19        -2.8761    2.8544   50.6641 C.2     1  ZINC001011676549    0.5800
     20 O20        -2.5250    3.5335   51.6100 O.2     1  ZINC001011676549   -0.5300
     21 C21        -4.3017    2.5506   50.4657 C.2     1  ZINC001011676549   -0.1400
     22 C22        -4.7157    1.3056   50.6179 C.2     1  ZINC001011676549   -0.1500
     23 C23        -6.1503    0.9010   50.4273 C.3     1  ZINC001011676549    0.0900
     24 O24        -6.9912    2.0562   50.4342 O.3     1  ZINC001011676549   -0.3800
     25 C25        -6.5411    3.0845   49.5438 C.3     1  ZINC001011676549    0.0600
     26 C26        -5.2391    3.6694   50.1024 C.3     1  ZINC001011676549   -0.1100
     27 H27        -2.7121    3.2508   47.3734 H       1  ZINC001011676549    0.0600
     28 H28        -3.3525    1.7013   46.7756 H       1  ZINC001011676549    0.0700
     29 H29        -4.1204    2.5045   48.1660 H       1  ZINC001011676549    0.0800
     30 H30        -1.0266    2.1897   46.0034 H       1  ZINC001011676549    0.4100
     31 H31        -1.9552   -0.5908   43.9182 H       1  ZINC001011676549    0.1100
     32 H32        -1.8554    1.1854   43.9780 H       1  ZINC001011676549    0.1100
     33 H33         0.9726    1.4006   45.0974 H       1  ZINC001011676549    0.1700
     34 H34         3.3867    0.0663   41.9893 H       1  ZINC001011676549    0.2000
     35 H35        -0.6254   -1.0158   41.9540 H       1  ZINC001011676549    0.1700
     36 H36         1.0594    2.1439   48.4114 H       1  ZINC001011676549    0.0900
     37 H37        -0.1534    3.3393   47.8418 H       1  ZINC001011676549    0.0800
     38 H38        -0.0389    1.8698   50.5326 H       1  ZINC001011676549    0.0800
     39 H39        -0.2932    3.6164   50.2330 H       1  ZINC001011676549    0.0800
     40 H40        -3.9949    0.5487   50.8898 H       1  ZINC001011676549    0.1200
     41 H41        -6.2561    0.3826   49.4743 H       1  ZINC001011676549    0.0700
     42 H42        -6.4478    0.2325   51.2352 H       1  ZINC001011676549    0.1100
     43 H43        -6.3624    2.6610   48.5555 H       1  ZINC001011676549    0.0600
     44 H44        -7.2954    3.8687   49.4787 H       1  ZINC001011676549    0.1000
     45 H45        -5.4597    4.2678   50.9862 H       1  ZINC001011676549    0.0900
     46 H46        -4.7700    4.2988   49.3461 H       1  ZINC001011676549    0.0900
@<TRIPOS>BOND
     1     1     2    1
     2     1    27    1
     3     1    28    1
     4     1    29    1
     5     2     3    1
     6     2    18    1
     7     2     4    1
     8     4     5    1
     9     4     6    1
    10     4    16    1
    11     6     7   am
    12     6    30    1
    13     7     8    2
    14     7     9    1
    15     9    10    1
    16     9    31    1
    17     9    32    1
    18    10    15   ar
    19    10    11   ar
    20    11    12   ar
    21    11    33    1
    22    12    13   ar
    23    13    14   ar
    24    13    34    1
    25    14    15   ar
    26    15    35    1
    27    16    17    1
    28    16    36    1
    29    16    37    1
    30    17    18    1
    31    17    38    1
    32    17    39    1
    33    18    19   am
    34    19    20    2
    35    19    21    1
    36    21    26    1
    37    21    22    2
    38    22    23    1
    39    22    40    1
    40    23    24    1
    41    23    41    1
    42    23    42    1
    43    24    25    1
    44    25    26    1
    45    25    43    1
    46    25    44    1
    47    26    45    1
    48    26    46    1
@<TRIPOS>SUBSTRUCTURE
     1 ZINC001011676549        1 TEMP              0 ****  ****    0 ROOT


##########                                Name:    ZINC000129637895
##########                DOCK_Rotatable_Bonds:                   7
##########                         Heavy_Atoms:                  26
##########                    Molecular_Weight:             374.464
##########                DOCK_Rotatable_Bonds:                   7
##########                       Formal_Charge:        -5.51343e-07
##########                     HBond_Acceptors:                   8
##########                        HBond_Donors:                   1
##########                         Heavy_Atoms:                  26
##########                          Grid_Score:          -30.981085
##########                     Grid_vdw_energy:          -30.769716
##########                      Grid_es_energy:           -0.211368
##########           Internal_energy_repulsive:           22.414982

@<TRIPOS>MOLECULE
ZINC000129637895
 48 50 1 0 0
SMALL
USER_CHARGES


@<TRIPOS>ATOM
      1 C1         -7.4353    3.4048   54.7789 C.3     1  ZINC000129637895   -0.1500
      2 C2         -6.4195    2.2676   54.9046 C.3     1  ZINC000129637895   -0.0500
      3 C3         -6.7508    1.1858   53.9091 C.2     1  ZINC000129637895    0.0300
      4 C4         -6.2430    1.1597   52.6638 C.2     1  ZINC000129637895   -0.0200
      5 N5         -5.3631    2.0923   52.1162 N.am    1  ZINC000129637895   -0.5900
      6 C6         -5.2819    2.2378   50.7787 C.2     1  ZINC000129637895    0.5000
      7 O7         -5.9761    1.5576   50.0509 O.2     1  ZINC000129637895   -0.4800
      8 C8         -4.3387    3.2349   50.1924 C.2     1  ZINC000129637895    0.5200
      9 O9         -4.7456    4.3246   49.8461 O.2     1  ZINC000129637895   -0.5100
     10 N10        -3.0349    2.9251   50.0476 N.am    1  ZINC000129637895   -0.5800
     11 C11        -2.5222    1.6082   50.4551 C.3     1  ZINC000129637895    0.0800
     12 C12        -1.7267    1.0132   49.2884 C.3     1  ZINC000129637895    0.0400
     13 N13        -0.7012    1.9735   48.8588 N.3     1  ZINC000129637895   -0.4900
     14 C14         0.1495    1.4053   47.9079 C.ar    1  ZINC000129637895    0.1500
     15 C15         1.5116    1.3073   48.1634 C.ar    1  ZINC000129637895   -0.2100
     16 C16         2.3528    0.7448   47.2227 C.ar    1  ZINC000129637895   -0.0500
     17 C17         1.8424    0.2790   46.0262 C.ar    1  ZINC000129637895   -0.2300
     18 C18         0.4824    0.3743   45.7655 C.ar    1  ZINC000129637895    0.1500
     19 O19        -0.0180   -0.0848   44.5883 O.3     1  ZINC000129637895   -0.3200
     20 C20        -1.4306    0.0183   44.3995 C.3     1  ZINC000129637895    0.0300
     21 C21        -0.3656    0.9326   46.7085 C.ar    1  ZINC000129637895   -0.1700
     22 C22        -1.3090    3.2100   48.3496 C.3     1  ZINC000129637895    0.0400
     23 C23        -2.0885    3.8928   49.4723 C.3     1  ZINC000129637895    0.1100
     24 S24        -6.8866   -0.2633   51.8480 S.3     1  ZINC000129637895    0.2400
     25 C25        -7.7693   -0.6808   53.2512 C.2     1  ZINC000129637895   -0.0300
     26 N26        -7.5584    0.1820   54.1864 N.2     1  ZINC000129637895   -0.4500
     27 H27        -7.3979    3.8156   53.7700 H       1  ZINC000129637895    0.0600
     28 H28        -8.4361    3.0217   54.9784 H       1  ZINC000129637895    0.0500
     29 H29        -7.1957    4.1872   55.4990 H       1  ZINC000129637895    0.0700
     30 H30        -5.4187    2.6507   54.7052 H       1  ZINC000129637895    0.0900
     31 H31        -6.4569    1.8568   55.9135 H       1  ZINC000129637895    0.0700
     32 H32        -4.8094    2.6364   52.6976 H       1  ZINC000129637895    0.4300
     33 H33        -1.8713    1.7210   51.3221 H       1  ZINC000129637895    0.0900
     34 H34        -3.3559    0.9512   50.7026 H       1  ZINC000129637895    0.1400
     35 H35        -1.2475    0.0883   49.6091 H       1  ZINC000129637895    0.1000
     36 H36        -2.4007    0.8049   48.4574 H       1  ZINC000129637895    0.0500
     37 H37         1.9131    1.6713   49.0975 H       1  ZINC000129637895    0.1300
     38 H38         3.4114    0.6694   47.4229 H       1  ZINC000129637895    0.1300
     39 H39         2.5027   -0.1595   45.2926 H       1  ZINC000129637895    0.1300
     40 H40        -1.9434   -0.5484   45.1765 H       1  ZINC000129637895    0.0600
     41 H41        -1.7293    1.0651   44.4563 H       1  ZINC000129637895    0.0600
     42 H42        -1.6967   -0.3829   43.4215 H       1  ZINC000129637895    0.1000
     43 H43        -1.4241    1.0072   46.5075 H       1  ZINC000129637895    0.1300
     44 H44        -0.5268    3.8782   47.9894 H       1  ZINC000129637895    0.1000
     45 H45        -1.9888    2.9712   47.5317 H       1  ZINC000129637895    0.0500
     46 H46        -2.6340    4.7474   49.0720 H       1  ZINC000129637895    0.1100
     47 H47        -1.3982    4.2259   50.2473 H       1  ZINC000129637895    0.0900
     48 H48        -8.4089   -1.5461   53.3430 H       1  ZINC000129637895    0.2000
@<TRIPOS>BOND
     1     1     2    1
     2     1    27    1
     3     1    28    1
     4     1    29    1
     5     2     3    1
     6     2    30    1
     7     2    31    1
     8     3    26    1
     9     3     4    2
    10     4     5    1
    11     4    24    1
    12     5     6   am
    13     5    32    1
    14     6     7    2
    15     6     8    1
    16     8     9    2
    17     8    10   am
    18    10    23    1
    19    10    11    1
    20    11    12    1
    21    11    33    1
    22    11    34    1
    23    12    13    1
    24    12    35    1
    25    12    36    1
    26    13    14    1
    27    13    22    1
    28    14    21   ar
    29    14    15   ar
    30    15    16   ar
    31    15    37    1
    32    16    17   ar
    33    16    38    1
    34    17    18   ar
    35    17    39    1
    36    18    19    1
    37    18    21   ar
    38    19    20    1
    39    20    40    1
    40    20    41    1
    41    20    42    1
    42    21    43    1
    43    22    23    1
    44    22    44    1
    45    22    45    1
    46    23    46    1
    47    23    47    1
    48    24    25    1
    49    25    26    2
    50    25    48    1
@<TRIPOS>SUBSTRUCTURE
     1 ZINC000129637895        1 TEMP              0 ****  ****    0 ROOT


##########                                Name:    ZINC000753658424
##########                DOCK_Rotatable_Bonds:                   8
##########                         Heavy_Atoms:                  24
##########                    Molecular_Weight:             332.399
##########                DOCK_Rotatable_Bonds:                   8
##########                       Formal_Charge:        -9.16421e-07
##########                     HBond_Acceptors:                   6
##########                        HBond_Donors:                   3
##########                         Heavy_Atoms:                  24
##########                          Grid_Score:          -30.971085
##########                     Grid_vdw_energy:          -27.892405
##########                      Grid_es_energy:           -3.078681
##########           Internal_energy_repulsive:           17.117392

@<TRIPOS>MOLECULE
ZINC000753658424
 48 49 1 0 0
SMALL
USER_CHARGES


@<TRIPOS>ATOM
      1 C1         -7.0541    1.9951   54.8393 C.3     1  ZINC000753658424   -0.2000
      2 C2         -7.7914    1.8319   53.5351 C.2     1  ZINC000753658424    0.4400
      3 O3         -8.9875    2.0289   53.4857 O.2     1  ZINC000753658424   -0.4500
      4 C4         -7.0633    1.4349   52.3260 C.2     1  ZINC000753658424   -0.2500
      5 C5         -7.0173    0.1658   51.7702 C.2     1  ZINC000753658424    0.1000
      6 C6         -7.7129   -1.0583   52.3076 C.3     1  ZINC000753658424   -0.1000
      7 N7         -6.2486    0.2135   50.6723 N.pl3   1  ZINC000753658424   -0.5300
      8 C8         -5.7856    1.4997   50.4956 C.2     1  ZINC000753658424   -0.0600
      9 C9         -4.9139    1.9568   49.4059 C.2     1  ZINC000753658424    0.5900
     10 O10        -5.3595    2.6757   48.5313 O.2     1  ZINC000753658424   -0.5200
     11 N11        -3.6203    1.5799   49.3745 N.am    1  ZINC000753658424   -0.7300
     12 C12        -2.7511    2.0346   48.2864 C.3     1  ZINC000753658424    0.0900
     13 C13        -1.6712    0.9833   48.0231 C.3     1  ZINC000753658424    0.1900
     14 H14        -2.1355    0.0021   47.9248 H       1  ZINC000753658424    0.1300
     15 O15        -0.7474    0.9660   49.1133 O.3     1  ZINC000753658424   -0.5500
     16 C16        -0.9395    1.3225   46.7501 C.2     1  ZINC000753658424   -0.0600
     17 C17        -0.4153    0.4366   45.8842 C.2     1  ZINC000753658424   -0.1800
     18 C18         0.1741    1.1849   44.8393 C.2     1  ZINC000753658424   -0.2100
     19 C19        -0.0253    2.4832   45.1292 C.2     1  ZINC000753658424    0.0000
     20 C20         0.4306    3.6526   44.2951 C.3     1  ZINC000753658424   -0.0800
     21 O21        -0.7054    2.5604   46.2847 O.3     1  ZINC000753658424   -0.1700
     22 C22        -6.2789    2.2761   51.5007 C.2     1  ZINC000753658424   -0.0100
     23 C23        -6.0292    3.7487   51.7011 C.3     1  ZINC000753658424   -0.0500
     24 C24        -4.5350    4.0385   51.5452 C.3     1  ZINC000753658424   -0.1500
     25 C25        -6.8149    4.5459   50.6581 C.3     1  ZINC000753658424   -0.1500
     26 H26        -7.7398    2.3677   55.6002 H       1  ZINC000753658424    0.0800
     27 H27        -6.6525    1.0315   55.1527 H       1  ZINC000753658424    0.1000
     28 H28        -6.2367    2.7041   54.7082 H       1  ZINC000753658424    0.0900
     29 H29        -8.6714   -1.1822   51.8037 H       1  ZINC000753658424    0.0900
     30 H30        -7.0923   -1.9365   52.1291 H       1  ZINC000753658424    0.0800
     31 H31        -7.8778   -0.9416   53.3787 H       1  ZINC000753658424    0.0900
     32 H32        -6.0497   -0.5391   50.0934 H       1  ZINC000753658424    0.4200
     33 H33        -3.2648    1.0077   50.0724 H       1  ZINC000753658424    0.4000
     34 H34        -3.3446    2.1797   47.3838 H       1  ZINC000753658424    0.0900
     35 H35        -2.2802    2.9767   48.5670 H       1  ZINC000753658424    0.0800
     36 H36        -0.0698    0.2796   49.0439 H       1  ZINC000753658424    0.3900
     37 H37        -0.4394   -0.6396   45.9708 H       1  ZINC000753658424    0.1500
     38 H38         0.6863    0.7898   43.9744 H       1  ZINC000753658424    0.1500
     39 H39        -0.3481    3.9132   43.5784 H       1  ZINC000753658424    0.0800
     40 H40         0.6282    4.5062   44.9434 H       1  ZINC000753658424    0.0800
     41 H41         1.3416    3.3841   43.7602 H       1  ZINC000753658424    0.0900
     42 H42        -6.3532    4.0394   52.7004 H       1  ZINC000753658424    0.1100
     43 H43        -4.2365    3.8612   50.5119 H       1  ZINC000753658424    0.0500
     44 H44        -4.3372    5.0778   51.8074 H       1  ZINC000753658424    0.0600
     45 H45        -3.9669    3.3828   52.2051 H       1  ZINC000753658424    0.0600
     46 H46        -7.8832    4.4017   50.8197 H       1  ZINC000753658424    0.0500
     47 H47        -6.5729    5.6045   50.7519 H       1  ZINC000753658424    0.0600
     48 H48        -6.5486    4.1993   49.6596 H       1  ZINC000753658424    0.0600
@<TRIPOS>BOND
     1     1     2    1
     2     1    26    1
     3     1    27    1
     4     1    28    1
     5     2     3    2
     6     2     4    1
     7     4    22    1
     8     4     5    2
     9     5     6    1
    10     5     7    1
    11     6    29    1
    12     6    30    1
    13     6    31    1
    14     7     8    1
    15     7    32    1
    16     8     9    1
    17     8    22    2
    18     9    10    2
    19     9    11   am
    20    11    12    1
    21    11    33    1
    22    12    13    1
    23    12    34    1
    24    12    35    1
    25    13    14    1
    26    13    15    1
    27    13    16    1
    28    15    36    1
    29    16    21    1
    30    16    17    2
    31    17    18    1
    32    17    37    1
    33    18    19    2
    34    18    38    1
    35    19    20    1
    36    19    21    1
    37    20    39    1
    38    20    40    1
    39    20    41    1
    40    22    23    1
    41    23    24    1
    42    23    25    1
    43    23    42    1
    44    24    43    1
    45    24    44    1
    46    24    45    1
    47    25    46    1
    48    25    47    1
    49    25    48    1
@<TRIPOS>SUBSTRUCTURE
     1 ZINC000753658424        1 TEMP              0 ****  ****    0 ROOT


##########                                Name:    ZINC000949401225
##########                DOCK_Rotatable_Bonds:                   7
##########                         Heavy_Atoms:                  24
##########                    Molecular_Weight:             332.403
##########                DOCK_Rotatable_Bonds:                   7
##########                       Formal_Charge:                0.03
##########                     HBond_Acceptors:                   7
##########                        HBond_Donors:                   1
##########                         Heavy_Atoms:                  24
##########                          Grid_Score:          -30.958921
##########                     Grid_vdw_energy:          -29.876959
##########                      Grid_es_energy:           -1.081962
##########           Internal_energy_repulsive:            8.031864

@<TRIPOS>MOLECULE
ZINC000949401225
 48 50 1 0 0
SMALL
USER_CHARGES


@<TRIPOS>ATOM
      1 C1         -4.7084    2.0087   49.4144 C.3     1  ZINC000949401225    0.0700
      2 N2         -5.4878    1.7289   50.6229 N.pl3   1  ZINC000949401225   -0.4500
      3 C3         -5.4537    2.4771   51.7634 C.2     1  ZINC000949401225   -0.0100
      4 C4         -6.2901    1.9333   52.6653 C.2     1  ZINC000949401225   -0.1700
      5 C5         -6.8829    0.7564   52.0209 C.2     1  ZINC000949401225   -0.2400
      6 C6         -7.8641   -0.1730   52.6060 C.2     1  ZINC000949401225    0.5900
      7 O7         -8.2826   -1.1078   51.9501 O.2     1  ZINC000949401225   -0.5500
      8 N8         -8.2983    0.0125   53.8683 N.am    1  ZINC000949401225   -0.7300
      9 C9         -9.2730   -0.9131   54.4511 C.3     1  ZINC000949401225    0.1200
     10 C10       -10.0583   -0.1995   55.5532 C.3     1  ZINC000949401225    0.1200
     11 H11        -9.4133    0.2285   56.3206 H       1  ZINC000949401225    0.1000
     12 C12       -11.1068    0.7852   55.0172 C.3     1  ZINC000949401225   -0.1500
     13 C13       -11.9521    0.2385   56.1759 C.3     1  ZINC000949401225    0.1000
     14 N14       -11.1638   -1.0018   56.0981 N.am    1  ZINC000949401225   -0.6400
     15 C15       -11.3669   -2.3010   56.3941 C.2     1  ZINC000949401225    0.5500
     16 O16       -10.4833   -3.1106   56.2080 O.2     1  ZINC000949401225   -0.5200
     17 C17       -12.6919   -2.7474   56.9563 C.3     1  ZINC000949401225   -0.1400
     18 C18       -12.5077   -3.1836   58.4111 C.3     1  ZINC000949401225    0.1500
     19 H19       -11.7601   -3.9743   58.4755 H       1  ZINC000949401225    0.0900
     20 C20       -12.0873   -1.9784   59.2814 C.3     1  ZINC000949401225   -0.1200
     21 C21       -12.8143   -2.2815   60.6120 C.3     1  ZINC000949401225   -0.1600
     22 C22       -13.9804   -3.1560   60.2069 C.2     1  ZINC000949401225    0.5200
     23 O23       -14.9506   -3.3842   60.8979 O.2     1  ZINC000949401225   -0.5300
     24 N24       -13.7844   -3.6451   58.9686 N.am    1  ZINC000949401225   -0.6200
     25 C25       -14.7257   -4.5221   58.2678 C.3     1  ZINC000949401225    0.0900
     26 C26        -6.3448    0.6998   50.7648 C.2     1  ZINC000949401225    0.0800
     27 H27        -5.2791    2.6652   48.7579 H       1  ZINC000949401225    0.0800
     28 H28        -3.7726    2.4949   49.6902 H       1  ZINC000949401225    0.0900
     29 H29        -4.4933    1.0741   48.8963 H       1  ZINC000949401225    0.0900
     30 H30        -4.8531    3.3614   51.9169 H       1  ZINC000949401225    0.1700
     31 H31        -6.4861    2.2915   53.6651 H       1  ZINC000949401225    0.1500
     32 H32        -7.9654    0.7586   54.3910 H       1  ZINC000949401225    0.4000
     33 H33        -9.9605   -1.2520   53.6762 H       1  ZINC000949401225    0.0700
     34 H34        -8.7511   -1.7714   54.8743 H       1  ZINC000949401225    0.0900
     35 H35       -10.8296    1.8341   55.1222 H       1  ZINC000949401225    0.1000
     36 H36       -11.4898    0.5353   54.0278 H       1  ZINC000949401225    0.1000
     37 H37       -11.8121    0.7829   57.1099 H       1  ZINC000949401225    0.0900
     38 H38       -13.0030    0.1025   55.9201 H       1  ZINC000949401225    0.0800
     39 H39       -13.4023   -1.9219   56.9116 H       1  ZINC000949401225    0.1000
     40 H40       -13.0711   -3.5852   56.3711 H       1  ZINC000949401225    0.1000
     41 H41       -11.0068   -1.9577   59.4232 H       1  ZINC000949401225    0.1000
     42 H42       -12.4404   -1.0426   58.8484 H       1  ZINC000949401225    0.0800
     43 H43       -12.1542   -2.8177   61.2939 H       1  ZINC000949401225    0.1100
     44 H44       -13.1705   -1.3592   61.0709 H       1  ZINC000949401225    0.1000
     45 H45       -15.6284   -4.6393   58.8673 H       1  ZINC000949401225    0.0800
     46 H46       -14.9839   -4.0821   57.3045 H       1  ZINC000949401225    0.0600
     47 H47       -14.2651   -5.4973   58.1100 H       1  ZINC000949401225    0.0600
     48 H48        -6.5646   -0.0470   50.0162 H       1  ZINC000949401225    0.1800
@<TRIPOS>BOND
     1     1     2    1
     2     1    27    1
     3     1    28    1
     4     1    29    1
     5     2    26    1
     6     2     3    1
     7     3     4    2
     8     3    30    1
     9     4     5    1
    10     4    31    1
    11     5     6    1
    12     5    26    2
    13     6     7    2
    14     6     8   am
    15     8     9    1
    16     8    32    1
    17     9    10    1
    18     9    33    1
    19     9    34    1
    20    10    11    1
    21    10    14    1
    22    10    12    1
    23    12    13    1
    24    12    35    1
    25    12    36    1
    26    13    14    1
    27    13    37    1
    28    13    38    1
    29    14    15   am
    30    15    16    2
    31    15    17    1
    32    17    18    1
    33    17    39    1
    34    17    40    1
    35    18    19    1
    36    18    24    1
    37    18    20    1
    38    20    21    1
    39    20    41    1
    40    20    42    1
    41    21    22    1
    42    21    43    1
    43    21    44    1
    44    22    23    2
    45    22    24   am
    46    24    25    1
    47    25    45    1
    48    25    46    1
    49    25    47    1
    50    26    48    1
@<TRIPOS>SUBSTRUCTURE
     1 ZINC000949401225        1 TEMP              0 ****  ****    0 ROOT


##########                                Name:    ZINC001328997126
##########                DOCK_Rotatable_Bonds:                   7
##########                         Heavy_Atoms:                  26
##########                    Molecular_Weight:             388.488
##########                DOCK_Rotatable_Bonds:                   7
##########                       Formal_Charge:           0.0299993
##########                     HBond_Acceptors:                  10
##########                        HBond_Donors:                   1
##########                         Heavy_Atoms:                  26
##########                          Grid_Score:          -30.952175
##########                     Grid_vdw_energy:          -30.414696
##########                      Grid_es_energy:           -0.537479
##########           Internal_energy_repulsive:            8.394380

@<TRIPOS>MOLECULE
ZINC001328997126
 54 56 1 0 0
SMALL
USER_CHARGES


@<TRIPOS>ATOM
      1 C1          2.1473    3.9297   47.0567 C.3     1  ZINC001328997126   -0.1700
      2 C2          2.8698    3.3925   45.8195 C.3     1  ZINC001328997126    0.1400
      3 N3          2.1816    2.1939   45.3341 N.am    1  ZINC001328997126   -0.6300
      4 C4          1.1579    2.1639   44.2782 C.3     1  ZINC001328997126    0.0700
      5 C5          0.7831    0.6729   44.1729 C.3     1  ZINC001328997126    0.0700
      6 H6          1.0083    0.2918   43.1768 H       1  ZINC001328997126    0.1200
      7 C7         -0.6968    0.4673   44.5023 C.3     1  ZINC001328997126    0.0500
      8 N8         -0.9630    0.9319   45.8702 N.3     1  ZINC001328997126   -0.5300
      9 C9         -1.2658   -0.1975   46.7605 C.3     1  ZINC001328997126    0.0500
     10 C10        -1.4582    0.3192   48.1882 C.3     1  ZINC001328997126    0.0600
     11 N11        -2.5461    1.3070   48.2065 N.3     1  ZINC001328997126   -0.5200
     12 C12        -2.8123    1.7716   49.5745 C.3     1  ZINC001328997126    0.0400
     13 C13        -4.2989    1.7825   49.8210 C.2     1  ZINC001328997126    0.5200
     14 O14        -5.0431    2.3030   49.0170 O.2     1  ZINC001328997126   -0.5100
     15 N15        -4.8015    1.2141   50.9348 N.am    1  ZINC001328997126   -0.7300
     16 C16        -6.2467    1.2263   51.1752 C.3     1  ZINC001328997126    0.1600
     17 H17        -6.7691    1.4851   50.2543 H       1  ZINC001328997126    0.1100
     18 C18        -6.7030   -0.1623   51.6560 C.3     1  ZINC001328997126   -0.1400
     19 C19        -8.1443    0.0085   52.2014 C.3     1  ZINC001328997126   -0.5800
     20 S20        -8.0296    1.5741   53.1477 S.o2    1  ZINC001328997126    2.4000
     21 O21        -9.1715    2.3745   52.8741 O.2     1  ZINC001328997126   -0.9300
     22 O22        -7.6728    1.2863   54.4927 O.2     1  ZINC001328997126   -0.9300
     23 C23        -6.5814    2.2599   52.2690 C.3     1  ZINC001328997126   -0.6100
     24 C24        -2.2433    2.4363   47.3164 C.3     1  ZINC001328997126    0.0500
     25 C25        -2.0509    1.9197   45.8886 C.3     1  ZINC001328997126    0.0600
     26 O26         1.6259    0.0261   45.1699 O.3     1  ZINC001328997126   -0.3100
     27 C27         2.3859    0.9453   45.7756 C.2     1  ZINC001328997126    0.6400
     28 O28         3.1828    0.6740   46.6518 O.2     1  ZINC001328997126   -0.5200
     29 H29         1.1193    4.1814   46.7963 H       1  ZINC001328997126    0.0600
     30 H30         2.1487    3.1688   47.8371 H       1  ZINC001328997126    0.0600
     31 H31         2.6594    4.8215   47.4179 H       1  ZINC001328997126    0.0700
     32 H32         2.8685    4.1535   45.0391 H       1  ZINC001328997126    0.0900
     33 H33         3.8979    3.1409   46.0799 H       1  ZINC001328997126    0.0900
     34 H34         0.2908    2.7570   44.5686 H       1  ZINC001328997126    0.0900
     35 H35         1.5701    2.5227   43.3351 H       1  ZINC001328997126    0.0900
     36 H36        -1.3075    1.0351   43.8004 H       1  ZINC001328997126    0.0900
     37 H37        -0.9427   -0.5917   44.4239 H       1  ZINC001328997126    0.0600
     38 H38        -2.1789   -0.6897   46.4257 H       1  ZINC001328997126    0.0500
     39 H39        -0.4402   -0.9088   46.7392 H       1  ZINC001328997126    0.0900
     40 H40        -1.7114   -0.5130   48.8450 H       1  ZINC001328997126    0.0800
     41 H41        -0.5361    0.7873   48.5328 H       1  ZINC001328997126    0.0500
     42 H42        -2.3310    1.1008   50.2862 H       1  ZINC001328997126    0.1100
     43 H43        -2.4158    2.7793   49.6996 H       1  ZINC001328997126    0.0700
     44 H44        -4.2065    0.7969   51.5772 H       1  ZINC001328997126    0.4100
     45 H45        -6.6999   -0.8654   50.8232 H       1  ZINC001328997126    0.1100
     46 H46        -6.0439   -0.5182   52.4480 H       1  ZINC001328997126    0.0900
     47 H47        -8.8588    0.1023   51.3836 H       1  ZINC001328997126    0.1400
     48 H48        -8.4109   -0.8208   52.8565 H       1  ZINC001328997126    0.1400
     49 H49        -5.7415    2.3732   52.9545 H       1  ZINC001328997126    0.1400
     50 H50        -6.8329    3.2186   51.8156 H       1  ZINC001328997126    0.1500
     51 H51        -3.0689    3.1476   47.3376 H       1  ZINC001328997126    0.1000
     52 H52        -1.3301    2.9285   47.6511 H       1  ZINC001328997126    0.0400
     53 H53        -1.7976    2.7519   45.2318 H       1  ZINC001328997126    0.0800
     54 H54        -2.9730    1.4515   45.5440 H       1  ZINC001328997126    0.0500
@<TRIPOS>BOND
     1     1     2    1
     2     1    29    1
     3     1    30    1
     4     1    31    1
     5     2     3    1
     6     2    32    1
     7     2    33    1
     8     3    27   am
     9     3     4    1
    10     4     5    1
    11     4    34    1
    12     4    35    1
    13     5     6    1
    14     5     7    1
    15     5    26    1
    16     7     8    1
    17     7    36    1
    18     7    37    1
    19     8    25    1
    20     8     9    1
    21     9    10    1
    22     9    38    1
    23     9    39    1
    24    10    11    1
    25    10    40    1
    26    10    41    1
    27    11    12    1
    28    11    24    1
    29    12    13    1
    30    12    42    1
    31    12    43    1
    32    13    14    2
    33    13    15   am
    34    15    16    1
    35    15    44    1
    36    16    17    1
    37    16    23    1
    38    16    18    1
    39    18    19    1
    40    18    45    1
    41    18    46    1
    42    19    20    1
    43    19    47    1
    44    19    48    1
    45    20    21    2
    46    20    22    2
    47    20    23    1
    48    23    49    1
    49    23    50    1
    50    24    25    1
    51    24    51    1
    52    24    52    1
    53    25    53    1
    54    25    54    1
    55    26    27    1
    56    27    28    2
@<TRIPOS>SUBSTRUCTURE
     1 ZINC001328997126        1 TEMP              0 ****  ****    0 ROOT


##########                                Name:    ZINC000265724350
##########                DOCK_Rotatable_Bonds:                   8
##########                         Heavy_Atoms:                  23
##########                    Molecular_Weight:              345.42
##########                DOCK_Rotatable_Bonds:                   8
##########                       Formal_Charge:          -0.0300002
##########                     HBond_Acceptors:                   9
##########                        HBond_Donors:                   2
##########                         Heavy_Atoms:                  23
##########                          Grid_Score:          -30.948818
##########                     Grid_vdw_energy:          -28.070583
##########                      Grid_es_energy:           -2.878234
##########           Internal_energy_repulsive:            7.032909

@<TRIPOS>MOLECULE
ZINC000265724350
 46 47 1 0 0
SMALL
USER_CHARGES


@<TRIPOS>ATOM
      1 C1         -5.7692    0.9880   66.4766 C.3     1  ZINC000265724350    0.0800
      2 N2         -6.4470   -0.1758   67.0533 N.am    1  ZINC000265724350   -1.1100
      3 S3         -8.0991   -0.2795   67.0056 S.o2    1  ZINC000265724350    2.7200
      4 O4         -8.4344   -1.5699   67.4970 O.2     1  ZINC000265724350   -0.9300
      5 O5         -8.5933    0.9231   67.5789 O.2     1  ZINC000265724350   -0.9300
      6 C6         -8.5744   -0.2540   65.3091 C.2     1  ZINC000265724350   -0.5600
      7 C7         -7.7644   -0.5203   64.2608 C.2     1  ZINC000265724350   -0.0900
      8 C8         -8.5382   -0.3891   63.0971 C.2     1  ZINC000265724350   -0.1400
      9 C9         -9.7969   -0.0451   63.4994 C.2     1  ZINC000265724350   -0.0200
     10 C10       -10.9460    0.1981   62.6211 C.2     1  ZINC000265724350    0.6000
     11 O11       -11.9771    0.6533   63.0801 O.2     1  ZINC000265724350   -0.5000
     12 N12       -10.8601   -0.0824   61.3056 N.am    1  ZINC000265724350   -0.7100
     13 C13       -12.0074    0.1621   60.4281 C.3     1  ZINC000265724350    0.1200
     14 C14       -11.8177   -0.6015   59.1159 C.3     1  ZINC000265724350   -0.1100
     15 H15       -12.6475   -0.3817   58.4443 H       1  ZINC000265724350    0.0800
     16 C16       -10.5036   -0.1713   58.4610 C.3     1  ZINC000265724350   -0.1400
     17 C17       -11.7771   -2.1041   59.4016 C.3     1  ZINC000265724350    0.0600
     18 N18       -12.7904   -2.7853   58.5849 N.3     1  ZINC000265724350   -0.5300
     19 C19       -13.9460   -3.1825   59.4022 C.3     1  ZINC000265724350    0.0100
     20 C20       -15.0006   -3.8334   58.5032 C.3     1  ZINC000265724350    0.0600
     21 O21       -14.4154   -4.9435   57.8172 O.3     1  ZINC000265724350   -0.3900
     22 C22       -13.2874   -4.5925   57.0111 C.3     1  ZINC000265724350    0.0600
     23 C23       -12.2156   -3.9493   57.8949 C.3     1  ZINC000265724350    0.0200
     24 O24        -9.7996    0.0266   64.8465 O.3     1  ZINC000265724350   -0.1100
     25 H25        -4.6918    0.8797   66.6012 H       1  ZINC000265724350    0.0900
     26 H26        -6.0069    1.0578   65.4151 H       1  ZINC000265724350    0.0600
     27 H27        -6.1046    1.8924   66.9842 H       1  ZINC000265724350    0.0700
     28 H28        -5.9281   -0.8855   67.4631 H       1  ZINC000265724350    0.4200
     29 H29        -6.7183   -0.7843   64.3092 H       1  ZINC000265724350    0.1800
     30 H30        -8.2029   -0.5323   62.0805 H       1  ZINC000265724350    0.1700
     31 H31       -10.0387   -0.4463   60.9400 H       1  ZINC000265724350    0.4100
     32 H32       -12.9192   -0.1789   60.9184 H       1  ZINC000265724350    0.0800
     33 H33       -12.0843    1.2292   60.2196 H       1  ZINC000265724350    0.0700
     34 H34       -10.5324    0.8992   58.2574 H       1  ZINC000265724350    0.0500
     35 H35        -9.6738   -0.3912   59.1326 H       1  ZINC000265724350    0.0600
     36 H36       -10.3684   -0.7153   57.5262 H       1  ZINC000265724350    0.0700
     37 H37       -10.7897   -2.4943   59.1554 H       1  ZINC000265724350    0.0800
     38 H38       -11.9840   -2.2788   60.4575 H       1  ZINC000265724350    0.0400
     39 H39       -13.6263   -3.8948   60.1628 H       1  ZINC000265724350    0.0400
     40 H40       -14.3715   -2.3018   59.8834 H       1  ZINC000265724350    0.0900
     41 H41       -15.8344   -4.1809   59.1132 H       1  ZINC000265724350    0.1000
     42 H42       -15.3593   -3.1045   57.7765 H       1  ZINC000265724350    0.0600
     43 H43       -12.8824   -5.4890   56.5419 H       1  ZINC000265724350    0.1000
     44 H44       -13.5964   -3.8858   56.2409 H       1  ZINC000265724350    0.0600
     45 H45       -11.3778   -3.6284   57.2760 H       1  ZINC000265724350    0.0900
     46 H46       -11.8682   -4.6739   58.6315 H       1  ZINC000265724350    0.0400
@<TRIPOS>BOND
     1     1     2    1
     2     1    25    1
     3     1    26    1
     4     1    27    1
     5     2     3   am
     6     2    28    1
     7     3     4    2
     8     3     5    2
     9     3     6    1
    10     6    24    1
    11     6     7    2
    12     7     8    1
    13     7    29    1
    14     8     9    2
    15     8    30    1
    16     9    10    1
    17     9    24    1
    18    10    11    2
    19    10    12   am
    20    12    13    1
    21    12    31    1
    22    13    14    1
    23    13    32    1
    24    13    33    1
    25    14    15    1
    26    14    16    1
    27    14    17    1
    28    16    34    1
    29    16    35    1
    30    16    36    1
    31    17    18    1
    32    17    37    1
    33    17    38    1
    34    18    23    1
    35    18    19    1
    36    19    20    1
    37    19    39    1
    38    19    40    1
    39    20    21    1
    40    20    41    1
    41    20    42    1
    42    21    22    1
    43    22    23    1
    44    22    43    1
    45    22    44    1
    46    23    45    1
    47    23    46    1
@<TRIPOS>SUBSTRUCTURE
     1 ZINC000265724350        1 TEMP              0 ****  ****    0 ROOT


##########                                Name:    ZINC000474368324
##########                DOCK_Rotatable_Bonds:                   9
##########                         Heavy_Atoms:                  27
##########                    Molecular_Weight:             417.332
##########                DOCK_Rotatable_Bonds:                   9
##########                       Formal_Charge:        -1.63913e-07
##########                     HBond_Acceptors:                   8
##########                        HBond_Donors:                   1
##########                         Heavy_Atoms:                  27
##########                          Grid_Score:          -30.915100
##########                     Grid_vdw_energy:          -29.995249
##########                      Grid_es_energy:           -0.919851
##########           Internal_energy_repulsive:           23.089556

@<TRIPOS>MOLECULE
ZINC000474368324
 53 54 1 0 0
SMALL
USER_CHARGES


@<TRIPOS>ATOM
      1 C1         -1.6234    0.4602   44.2160 C.3     1  ZINC000474368324   -0.1500
      2 C2         -1.5985    1.6021   45.2340 C.3     1  ZINC000474368324    0.0600
      3 O3         -0.7035    1.2588   46.3247 O.3     1  ZINC000474368324   -0.3300
      4 C4         -0.5221    2.1854   47.2787 C.2     1  ZINC000474368324    0.4700
      5 O5          0.2192    3.1189   47.0811 O.2     1  ZINC000474368324   -0.5100
      6 C6         -1.2430    2.0615   48.5963 C.3     1  ZINC000474368324   -0.0400
      7 C7         -0.2500    2.2667   49.7420 C.3     1  ZINC000474368324    0.0600
      8 O8          0.8358    1.3485   49.6016 O.3     1  ZINC000474368324   -0.3700
      9 C9          1.4364    0.9647   50.8401 C.3     1  ZINC000474368324    0.0300
     10 C10        -2.3419    3.1236   48.6781 C.3     1  ZINC000474368324   -0.1200
     11 C11        -3.0497    3.0170   50.0325 C.3     1  ZINC000474368324    0.1100
     12 N12        -3.5279    1.6391   50.2091 N.am    1  ZINC000474368324   -0.6300
     13 C13        -4.8205    1.3929   50.5007 C.2     1  ZINC000474368324    0.7100
     14 O14        -5.2039    0.2480   50.6445 O.2     1  ZINC000474368324   -0.5800
     15 N15        -5.6882    2.4157   50.6329 N.am    1  ZINC000474368324   -0.7400
     16 C16        -7.0931    2.1482   50.9499 C.3     1  ZINC000474368324    0.2000
     17 H17        -7.3190    1.1017   50.7449 H       1  ZINC000474368324    0.1100
     18 C18        -7.9891    3.0413   50.0893 C.3     1  ZINC000474368324   -0.1600
     19 C19        -7.3438    2.4400   52.4070 C.ar    1  ZINC000474368324   -0.0700
     20 C20        -6.9415    3.6458   52.9493 C.ar    1  ZINC000474368324   -0.1000
     21 C21        -7.1716    3.9146   54.2860 C.ar    1  ZINC000474368324   -0.0900
     22 C22        -7.8041    2.9778   55.0811 C.ar    1  ZINC000474368324   -0.1000
     23 C23        -8.2076    1.7703   54.5399 C.ar    1  ZINC000474368324   -0.0300
     24 Cl24       -9.0021    0.5932   55.5383 Cl      1  ZINC000474368324   -0.0400
     25 C25        -7.9819    1.5033   53.2002 C.ar    1  ZINC000474368324   -0.0300
     26 Cl26       -8.4881   -0.0113   52.5193 Cl      1  ZINC000474368324   -0.0400
     27 C27        -2.5703    0.5346   50.0613 C.3     1  ZINC000474368324    0.1300
     28 C28        -1.8680    0.6689   48.7065 C.3     1  ZINC000474368324   -0.1200
     29 H29        -2.2952    0.7179   43.3973 H       1  ZINC000474368324    0.0800
     30 H30        -0.6187    0.3002   43.8248 H       1  ZINC000474368324    0.0700
     31 H31        -1.9740   -0.4510   44.7006 H       1  ZINC000474368324    0.0700
     32 H32        -1.2479    2.5133   44.7494 H       1  ZINC000474368324    0.0700
     33 H33        -2.6032    1.7621   45.6251 H       1  ZINC000474368324    0.0700
     34 H34         0.1314    3.2874   49.7138 H       1  ZINC000474368324    0.0700
     35 H35        -0.7522    2.0927   50.6937 H       1  ZINC000474368324    0.0600
     36 H36         1.8262    1.8489   51.3443 H       1  ZINC000474368324    0.0400
     37 H37         0.6895    0.4852   51.4729 H       1  ZINC000474368324    0.0400
     38 H38         2.2516    0.2671   50.6480 H       1  ZINC000474368324    0.0900
     39 H39        -1.8988    4.1142   48.5760 H       1  ZINC000474368324    0.1000
     40 H40        -3.0634    2.9629   47.8770 H       1  ZINC000474368324    0.0800
     41 H41        -2.3505    3.2663   50.8308 H       1  ZINC000474368324    0.0800
     42 H42        -3.8959    3.7036   50.0576 H       1  ZINC000474368324    0.0800
     43 H43        -5.3822    3.3291   50.5183 H       1  ZINC000474368324    0.3900
     44 H44        -7.7633    4.0878   50.2944 H       1  ZINC000474368324    0.0600
     45 H45        -7.8078    2.8302   49.0354 H       1  ZINC000474368324    0.0700
     46 H46        -9.0345    2.8423   50.3252 H       1  ZINC000474368324    0.0700
     47 H47        -6.4468    4.3784   52.3288 H       1  ZINC000474368324    0.1300
     48 H48        -6.8564    4.8572   54.7089 H       1  ZINC000474368324    0.1400
     49 H49        -7.9832    3.1883   56.1252 H       1  ZINC000474368324    0.1500
     50 H50        -1.8321    0.5813   50.8619 H       1  ZINC000474368324    0.0700
     51 H51        -3.1003   -0.4169   50.1053 H       1  ZINC000474368324    0.1100
     52 H52        -2.5939    0.5314   47.9052 H       1  ZINC000474368324    0.0900
     53 H53        -1.0875   -0.0877   48.6248 H       1  ZINC000474368324    0.0900
@<TRIPOS>BOND
     1     1     2    1
     2     1    29    1
     3     1    30    1
     4     1    31    1
     5     2     3    1
     6     2    32    1
     7     2    33    1
     8     3     4    1
     9     4     5    2
    10     4     6    1
    11     6    28    1
    12     6     7    1
    13     6    10    1
    14     7     8    1
    15     7    34    1
    16     7    35    1
    17     8     9    1
    18     9    36    1
    19     9    37    1
    20     9    38    1
    21    10    11    1
    22    10    39    1
    23    10    40    1
    24    11    12    1
    25    11    41    1
    26    11    42    1
    27    12    13   am
    28    12    27    1
    29    13    14    2
    30    13    15   am
    31    15    16    1
    32    15    43    1
    33    16    17    1
    34    16    18    1
    35    16    19    1
    36    18    44    1
    37    18    45    1
    38    18    46    1
    39    19    25   ar
    40    19    20   ar
    41    20    21   ar
    42    20    47    1
    43    21    22   ar
    44    21    48    1
    45    22    23   ar
    46    22    49    1
    47    23    24    1
    48    23    25   ar
    49    25    26    1
    50    27    28    1
    51    27    50    1
    52    27    51    1
    53    28    52    1
    54    28    53    1
@<TRIPOS>SUBSTRUCTURE
     1 ZINC000474368324        1 TEMP              0 ****  ****    0 ROOT


##########                                Name:    ZINC000859608860
##########                DOCK_Rotatable_Bonds:                   8
##########                         Heavy_Atoms:                  24
##########                    Molecular_Weight:             394.268
##########                DOCK_Rotatable_Bonds:                   8
##########                       Formal_Charge:          -0.0200003
##########                     HBond_Acceptors:                   6
##########                        HBond_Donors:                   1
##########                         Heavy_Atoms:                  24
##########                          Grid_Score:          -30.911129
##########                     Grid_vdw_energy:          -29.596489
##########                      Grid_es_energy:           -1.314639
##########           Internal_energy_repulsive:            9.140424

@<TRIPOS>MOLECULE
ZINC000859608860
 44 45 1 0 0
SMALL
USER_CHARGES


@<TRIPOS>ATOM
      1 C1        -10.1940    0.1110   52.6718 C.3     1  ZINC000859608860   -0.1400
      2 C2         -9.4875    0.2470   54.0221 C.3     1  ZINC000859608860   -0.0800
      3 C3         -9.3247    1.7290   54.3656 C.3     1  ZINC000859608860   -0.1400
      4 C4        -10.3220   -0.4390   55.1056 C.3     1  ZINC000859608860   -0.1400
      5 C5         -8.1094   -0.4132   53.9454 C.3     1  ZINC000859608860    0.1300
      6 N6         -7.3106    0.2432   52.9074 N.am    1  ZINC000859608860   -0.7300
      7 C7         -7.1550   -0.3443   51.7046 C.2     1  ZINC000859608860    0.5100
      8 O8         -7.6749   -1.4171   51.4818 O.2     1  ZINC000859608860   -0.5100
      9 C9         -6.3348    0.3318   50.6363 C.3     1  ZINC000859608860    0.0500
     10 O10        -6.4517    1.7724   50.7753 O.3     1  ZINC000859608860   -0.3100
     11 C11        -5.8146    2.5293   49.8598 C.2     1  ZINC000859608860    0.5600
     12 O12        -6.4453    3.3010   49.1641 O.2     1  ZINC000859608860   -0.5100
     13 C13        -4.3555    2.4214   49.7027 C.2     1  ZINC000859608860   -0.0400
     14 C14        -3.4394    2.3426   50.7119 C.2     1  ZINC000859608860    0.0500
     15 N15        -2.2149    2.2560   50.1247 N.pl3   1  ZINC000859608860   -0.4100
     16 C16        -0.9832    2.1568   50.7877 C.ar    1  ZINC000859608860    0.1400
     17 C17        -0.4924    3.2373   51.5082 C.ar    1  ZINC000859608860   -0.1200
     18 C18         0.7207    3.1370   52.1607 C.ar    1  ZINC000859608860   -0.0600
     19 C19         1.4468    1.9609   52.0967 C.ar    1  ZINC000859608860   -0.1000
     20 Br20        3.1074    1.8271   52.9912 Br      1  ZINC000859608860   -0.0300
     21 C21         0.9597    0.8826   51.3797 C.ar    1  ZINC000859608860   -0.0600
     22 C22        -0.2552    0.9762   50.7293 C.ar    1  ZINC000859608860   -0.1200
     23 C23        -2.4025    2.2831   48.7767 C.2     1  ZINC000859608860    0.2000
     24 N24        -3.6765    2.3760   48.5276 N.2     1  ZINC000859608860   -0.4300
     25 H25        -9.5996    0.5997   51.8998 H       1  ZINC000859608860    0.0500
     26 H26       -10.3100   -0.9448   52.4272 H       1  ZINC000859608860    0.0600
     27 H27       -11.1758    0.5812   52.7265 H       1  ZINC000859608860    0.0600
     28 H28       -10.3065    2.1992   54.4202 H       1  ZINC000859608860    0.0600
     29 H29        -8.8215    1.8258   55.3276 H       1  ZINC000859608860    0.0600
     30 H30        -8.7302    2.2177   53.5936 H       1  ZINC000859608860    0.0500
     31 H31       -10.4380   -1.4949   54.8609 H       1  ZINC000859608860    0.0600
     32 H32        -9.8187   -0.3422   56.0676 H       1  ZINC000859608860    0.0600
     33 H33       -11.3038    0.0313   55.1602 H       1  ZINC000859608860    0.0600
     34 H34        -7.6059   -0.3159   54.9072 H       1  ZINC000859608860    0.0700
     35 H35        -8.2255   -1.4691   53.7011 H       1  ZINC000859608860    0.0700
     36 H36        -6.8938    1.1007   53.0860 H       1  ZINC000859608860    0.4000
     37 H37        -5.2898    0.0402   50.7415 H       1  ZINC000859608860    0.1000
     38 H38        -6.6988    0.0308   49.6538 H       1  ZINC000859608860    0.1000
     39 H39        -3.6465    2.3483   51.7719 H       1  ZINC000859608860    0.2000
     40 H40        -1.0587    4.1556   51.5581 H       1  ZINC000859608860    0.1400
     41 H41         1.1030    3.9774   52.7210 H       1  ZINC000859608860    0.1500
     42 H42         1.5283   -0.0343   51.3312 H       1  ZINC000859608860    0.1500
     43 H43        -0.6350    0.1342   50.1697 H       1  ZINC000859608860    0.1500
     44 H44        -1.6205    2.2317   48.0336 H       1  ZINC000859608860    0.2200
@<TRIPOS>BOND
     1     1     2    1
     2     1    25    1
     3     1    26    1
     4     1    27    1
     5     2     3    1
     6     2     4    1
     7     2     5    1
     8     3    28    1
     9     3    29    1
    10     3    30    1
    11     4    31    1
    12     4    32    1
    13     4    33    1
    14     5     6    1
    15     5    34    1
    16     5    35    1
    17     6     7   am
    18     6    36    1
    19     7     8    2
    20     7     9    1
    21     9    10    1
    22     9    37    1
    23     9    38    1
    24    10    11    1
    25    11    12    2
    26    11    13    1
    27    13    24    1
    28    13    14    2
    29    14    15    1
    30    14    39    1
    31    15    16    1
    32    15    23    1
    33    16    22   ar
    34    16    17   ar
    35    17    18   ar
    36    17    40    1
    37    18    19   ar
    38    18    41    1
    39    19    20    1
    40    19    21   ar
    41    21    22   ar
    42    21    42    1
    43    22    43    1
    44    23    24    2
    45    23    44    1
@<TRIPOS>SUBSTRUCTURE
     1 ZINC000859608860        1 TEMP              0 ****  ****    0 ROOT


##########                                Name:    ZINC000174621331
##########                DOCK_Rotatable_Bonds:                   8
##########                         Heavy_Atoms:                  25
##########                    Molecular_Weight:             366.438
##########                DOCK_Rotatable_Bonds:                   8
##########                       Formal_Charge:        -5.96046e-08
##########                     HBond_Acceptors:                   8
##########                        HBond_Donors:                   3
##########                         Heavy_Atoms:                  25
##########                          Grid_Score:          -30.903086
##########                     Grid_vdw_energy:          -30.624876
##########                      Grid_es_energy:           -0.278209
##########           Internal_energy_repulsive:           14.631495

@<TRIPOS>MOLECULE
ZINC000174621331
 47 48 1 0 0
SMALL
USER_CHARGES


@<TRIPOS>ATOM
      1 C1         -8.0649   -0.2603   64.2425 C.3     1  ZINC000174621331    0.0300
      2 O2         -9.2018    0.5191   63.8652 O.3     1  ZINC000174621331   -0.3800
      3 C3         -8.9513    1.4322   62.7949 C.3     1  ZINC000174621331    0.0500
      4 C4         -8.7472    0.6510   61.4953 C.3     1  ZINC000174621331    0.2400
      5 H5         -7.9563   -0.0860   61.6347 H       1  ZINC000174621331    0.1300
      6 N6         -9.9926   -0.0313   61.1350 N.am    1  ZINC000174621331   -0.7200
      7 C7         -9.9507   -1.2267   60.5140 C.2     1  ZINC000174621331    0.5600
      8 O8         -8.8796   -1.7380   60.2515 O.2     1  ZINC000174621331   -0.5300
      9 C9        -11.2074   -1.9162   60.1519 C.ar    1  ZINC000174621331   -0.1600
     10 C10       -12.3166   -1.8399   60.9953 C.ar    1  ZINC000174621331   -0.0200
     11 C11       -13.4867   -2.4854   60.6514 C.ar    1  ZINC000174621331   -0.1100
     12 C12       -14.6855   -2.4041   61.5608 C.3     1  ZINC000174621331   -0.1200
     13 C13       -13.5618   -3.2065   59.4732 C.ar    1  ZINC000174621331    0.0400
     14 C14       -14.8431   -3.9084   59.1036 C.3     1  ZINC000174621331   -0.1600
     15 C15       -12.4657   -3.2857   58.6322 C.ar    1  ZINC000174621331   -0.6800
     16 S16       -12.5722   -4.2064   57.1336 S.o2    1  ZINC000174621331    2.7000
     17 N17       -11.2074   -3.8747   56.2564 N.am    1  ZINC000174621331   -1.2500
     18 O18       -12.4916   -5.5773   57.4984 O.2     1  ZINC000174621331   -0.9500
     19 O19       -13.6615   -3.6593   56.4033 O.2     1  ZINC000174621331   -0.9600
     20 C20       -11.2914   -2.6415   58.9622 C.ar    1  ZINC000174621331    0.0400
     21 C21        -8.3588    1.6025   60.3930 C.2     1  ZINC000174621331   -0.0200
     22 C22        -8.8046    2.8634   60.2489 C.2     1  ZINC000174621331   -0.1900
     23 C23        -8.1870    3.3861   59.0895 C.2     1  ZINC000174621331   -0.2100
     24 C24        -7.4007    2.4134   58.5945 C.2     1  ZINC000174621331    0.0000
     25 C25        -6.5435    2.5161   57.3593 C.3     1  ZINC000174621331   -0.0800
     26 O26        -7.5043    1.3373   59.3914 O.3     1  ZINC000174621331   -0.1600
     27 H27        -7.7289   -0.8494   63.3891 H       1  ZINC000174621331    0.0400
     28 H28        -7.2616    0.4017   64.5658 H       1  ZINC000174621331    0.0400
     29 H29        -8.3371   -0.9277   65.0602 H       1  ZINC000174621331    0.0900
     30 H30        -9.8017    2.1050   62.6848 H       1  ZINC000174621331    0.0700
     31 H31        -8.0550    2.0123   63.0146 H       1  ZINC000174621331    0.0700
     32 H32       -10.8473    0.3772   61.3434 H       1  ZINC000174621331    0.4100
     33 H33       -12.2593   -1.2773   61.9154 H       1  ZINC000174621331    0.1400
     34 H34       -15.2934   -1.5425   61.2847 H       1  ZINC000174621331    0.0800
     35 H35       -15.2784   -3.3135   61.4626 H       1  ZINC000174621331    0.0800
     36 H36       -14.3519   -2.2976   62.5931 H       1  ZINC000174621331    0.0700
     37 H37       -15.4707   -3.2354   58.5194 H       1  ZINC000174621331    0.1100
     38 H38       -14.6141   -4.7958   58.5135 H       1  ZINC000174621331    0.0700
     39 H39       -15.3713   -4.2018   60.0109 H       1  ZINC000174621331    0.0900
     40 H40       -11.0149   -2.9636   55.9847 H       1  ZINC000174621331    0.4200
     41 H41       -10.6004   -4.5915   56.0142 H       1  ZINC000174621331    0.4200
     42 H42       -10.4368   -2.7039   58.3048 H       1  ZINC000174621331    0.1600
     43 H43        -9.5010    3.3775   60.8946 H       1  ZINC000174621331    0.1500
     44 H44        -8.3211    4.3763   58.6796 H       1  ZINC000174621331    0.1500
     45 H45        -5.5542    2.8826   57.6332 H       1  ZINC000174621331    0.0800
     46 H46        -6.4518    1.5329   56.8979 H       1  ZINC000174621331    0.0800
     47 H47        -7.0044    3.2071   56.6536 H       1  ZINC000174621331    0.0900
@<TRIPOS>BOND
     1     1     2    1
     2     1    27    1
     3     1    28    1
     4     1    29    1
     5     2     3    1
     6     3     4    1
     7     3    30    1
     8     3    31    1
     9     4     5    1
    10     4     6    1
    11     4    21    1
    12     6     7   am
    13     6    32    1
    14     7     8    2
    15     7     9    1
    16     9    20   ar
    17     9    10   ar
    18    10    11   ar
    19    10    33    1
    20    11    12    1
    21    11    13   ar
    22    12    34    1
    23    12    35    1
    24    12    36    1
    25    13    14    1
    26    13    15   ar
    27    14    37    1
    28    14    38    1
    29    14    39    1
    30    15    16    1
    31    15    20   ar
    32    16    17   am
    33    16    18    2
    34    16    19    2
    35    17    40    1
    36    17    41    1
    37    20    42    1
    38    21    26    1
    39    21    22    2
    40    22    23    1
    41    22    43    1
    42    23    24    2
    43    23    44    1
    44    24    25    1
    45    24    26    1
    46    25    45    1
    47    25    46    1
    48    25    47    1
@<TRIPOS>SUBSTRUCTURE
     1 ZINC000174621331        1 TEMP              0 ****  ****    0 ROOT


##########                                Name:    ZINC001045438664
##########                DOCK_Rotatable_Bonds:                   6
##########                         Heavy_Atoms:                  26
##########                    Molecular_Weight:             352.439
##########                DOCK_Rotatable_Bonds:                   6
##########                       Formal_Charge:          -0.0099999
##########                     HBond_Acceptors:                   7
##########                        HBond_Donors:                   2
##########                         Heavy_Atoms:                  26
##########                          Grid_Score:          -30.900652
##########                     Grid_vdw_energy:          -30.724171
##########                      Grid_es_energy:           -0.176480
##########           Internal_energy_repulsive:            7.647547

@<TRIPOS>MOLECULE
ZINC001045438664
 50 53 1 0 0
SMALL
USER_CHARGES


@<TRIPOS>ATOM
      1 C1        -14.4959   -1.7743   61.6605 C.3     1  ZINC001045438664   -0.1100
      2 C2        -13.7008   -2.2630   60.4771 C.ar    1  ZINC001045438664    0.2100
      3 C3        -12.4334   -1.7713   60.2359 C.ar    1  ZINC001045438664   -0.3000
      4 C4        -11.7348   -2.2544   59.1272 C.ar    1  ZINC001045438664    0.4500
      5 N5        -10.4599   -1.7929   58.8426 N.pl3   1  ZINC001045438664   -0.7100
      6 C6        -10.2822   -0.5702   58.0554 C.3     1  ZINC001045438664    0.1500
      7 H7        -11.1708    0.0542   58.1487 H       1  ZINC001045438664    0.0900
      8 C8        -10.0685   -0.9366   56.5855 C.3     1  ZINC001045438664   -0.1300
      9 C9         -9.8830    0.3403   55.7633 C.3     1  ZINC001045438664   -0.1200
     10 C10        -8.6641    1.1071   56.2803 C.3     1  ZINC001045438664   -0.1200
     11 C11        -8.8779    1.4735   57.7504 C.3     1  ZINC001045438664   -0.1300
     12 C12        -9.0634    0.1966   58.5724 C.3     1  ZINC001045438664    0.1400
     13 H13        -8.1749   -0.4279   58.4791 H       1  ZINC001045438664    0.1000
     14 N14        -9.2681    0.5474   59.9799 N.am    1  ZINC001045438664   -0.7200
     15 C15        -8.6543   -0.1622   60.9475 C.2     1  ZINC001045438664    0.5700
     16 O16        -7.9319   -1.0942   60.6523 O.2     1  ZINC001045438664   -0.5200
     17 C17        -8.8595    0.1929   62.3678 C.ar    1  ZINC001045438664   -0.2500
     18 C18        -9.6789    1.2682   62.7295 C.ar    1  ZINC001045438664    0.1900
     19 N19        -9.8348    1.5501   64.0111 N.ar    1  ZINC001045438664   -0.5200
     20 C20        -9.2320    0.8357   64.9412 C.ar    1  ZINC001045438664    0.3200
     21 N21        -8.4514   -0.1849   64.6448 N.ar    1  ZINC001045438664   -0.5200
     22 C22        -8.2444   -0.5404   63.3889 C.ar    1  ZINC001045438664    0.2100
     23 N23       -12.3128   -3.1650   58.3495 N.ar    1  ZINC001045438664   -0.5800
     24 C24       -13.5251   -3.6065   58.6176 C.ar    1  ZINC001045438664    0.4000
     25 C25       -14.1455   -4.6392   57.7122 C.3     1  ZINC001045438664   -0.1100
     26 C26       -13.6088   -4.7395   56.2830 C.3     1  ZINC001045438664   -0.1500
     27 C27       -13.2788   -5.8316   57.3024 C.3     1  ZINC001045438664   -0.1500
     28 N28       -14.2078   -3.1742   59.6584 N.ar    1  ZINC001045438664   -0.5600
     29 H29       -14.2831   -2.4025   62.5255 H       1  ZINC001045438664    0.0800
     30 H30       -14.2197   -0.7437   61.8832 H       1  ZINC001045438664    0.0800
     31 H31       -15.5598   -1.8235   61.4286 H       1  ZINC001045438664    0.0800
     32 H32       -11.9933   -1.0313   60.8879 H       1  ZINC001045438664    0.1400
     33 H33        -9.6849   -2.2795   59.1645 H       1  ZINC001045438664    0.4100
     34 H34        -9.1800   -1.5611   56.4921 H       1  ZINC001045438664    0.0700
     35 H35       -10.9369   -1.4829   56.2171 H       1  ZINC001045438664    0.0700
     36 H36        -9.7306    0.0794   54.7161 H       1  ZINC001045438664    0.0700
     37 H37       -10.7714    0.9648   55.8567 H       1  ZINC001045438664    0.0700
     38 H38        -7.7756    0.4827   56.1871 H       1  ZINC001045438664    0.0700
     39 H39        -8.5318    2.0169   55.6947 H       1  ZINC001045438664    0.0700
     40 H40        -8.0095    2.0198   58.1186 H       1  ZINC001045438664    0.0800
     41 H41        -9.7664    2.0980   57.8436 H       1  ZINC001045438664    0.0700
     42 H42        -9.8456    1.2903   60.2156 H       1  ZINC001045438664    0.4000
     43 H43       -10.1756    1.8582   61.9734 H       1  ZINC001045438664    0.1700
     44 H44        -9.3822    1.0949   65.9788 H       1  ZINC001045438664    0.2100
     45 H45        -7.6038   -1.3775   63.1540 H       1  ZINC001045438664    0.1800
     46 H46       -15.2097   -4.8193   57.8644 H       1  ZINC001045438664    0.1300
     47 H47       -14.3201   -4.9855   55.4944 H       1  ZINC001045438664    0.1000
     48 H48       -12.8070   -4.0587   55.9974 H       1  ZINC001045438664    0.1100
     49 H49       -12.2598   -5.8692   57.6876 H       1  ZINC001045438664    0.1000
     50 H50       -13.7729   -6.7960   57.1847 H       1  ZINC001045438664    0.1000
@<TRIPOS>BOND
     1     1     2    1
     2     1    29    1
     3     1    30    1
     4     1    31    1
     5     2    28   ar
     6     2     3   ar
     7     3     4   ar
     8     3    32    1
     9     4     5    1
    10     4    23   ar
    11     5     6    1
    12     5    33    1
    13     6     7    1
    14     6    12    1
    15     6     8    1
    16     8     9    1
    17     8    34    1
    18     8    35    1
    19     9    10    1
    20     9    36    1
    21     9    37    1
    22    10    11    1
    23    10    38    1
    24    10    39    1
    25    11    12    1
    26    11    40    1
    27    11    41    1
    28    12    13    1
    29    12    14    1
    30    14    15   am
    31    14    42    1
    32    15    16    2
    33    15    17    1
    34    17    22   ar
    35    17    18   ar
    36    18    19   ar
    37    18    43    1
    38    19    20   ar
    39    20    21   ar
    40    20    44    1
    41    21    22   ar
    42    22    45    1
    43    23    24   ar
    44    24    25    1
    45    24    28   ar
    46    25    27    1
    47    25    26    1
    48    25    46    1
    49    26    27    1
    50    26    47    1
    51    26    48    1
    52    27    49    1
    53    27    50    1
@<TRIPOS>SUBSTRUCTURE
     1 ZINC001045438664        1 TEMP              0 ****  ****    0 ROOT


##########                                Name:    ZINC000523878927
##########                DOCK_Rotatable_Bonds:                   8
##########                         Heavy_Atoms:                  27
##########                    Molecular_Weight:             376.474
##########                DOCK_Rotatable_Bonds:                   8
##########                       Formal_Charge:          0.00999957
##########                     HBond_Acceptors:                   7
##########                        HBond_Donors:                   3
##########                         Heavy_Atoms:                  27
##########                          Grid_Score:          -30.896467
##########                     Grid_vdw_energy:          -29.778006
##########                      Grid_es_energy:           -1.118461
##########           Internal_energy_repulsive:            7.161077

@<TRIPOS>MOLECULE
ZINC000523878927
 56 58 1 0 0
SMALL
USER_CHARGES


@<TRIPOS>ATOM
      1 C1        -12.1850    0.6556   57.3419 C.3     1  ZINC000523878927   -0.1500
      2 C2        -11.8484   -0.8093   57.0565 C.3     1  ZINC000523878927   -0.0900
      3 H3        -12.6821   -1.4403   57.3643 H       1  ZINC000523878927    0.0700
      4 C4        -10.5935   -1.2057   57.8370 C.3     1  ZINC000523878927   -0.1200
      5 C5         -9.4232   -0.3199   57.4049 C.3     1  ZINC000523878927   -0.1200
      6 C6         -9.1711   -0.5028   55.9069 C.3     1  ZINC000523878927   -0.1100
      7 C7        -10.4259   -0.1065   55.1265 C.3     1  ZINC000523878927   -0.1000
      8 H8        -10.6657    0.9372   55.3297 H       1  ZINC000523878927    0.0800
      9 C9        -10.1738   -0.2895   53.6285 C.3     1  ZINC000523878927    0.1400
     10 N10        -9.0532    0.5587   53.2147 N.am    1  ZINC000523878927   -0.7400
     11 C11        -8.2464    0.1661   52.2090 C.2     1  ZINC000523878927    0.7200
     12 O12        -8.4478   -0.8926   51.6460 O.2     1  ZINC000523878927   -0.5800
     13 N13        -7.2164    0.9470   51.8274 N.am    1  ZINC000523878927   -0.6400
     14 C14        -6.8592    2.2486   52.4205 C.3     1  ZINC000523878927    0.1000
     15 C15        -5.3512    2.4242   52.1128 C.3     1  ZINC000523878927   -0.1400
     16 C16        -5.2484    1.8036   50.6944 C.3     1  ZINC000523878927    0.1500
     17 H17        -5.5361    2.5297   49.9340 H       1  ZINC000523878927    0.1100
     18 N18        -3.8944    1.3031   50.4445 N.am    1  ZINC000523878927   -0.7300
     19 C19        -3.3124    1.5035   49.2455 C.2     1  ZINC000523878927    0.7100
     20 O20        -3.9106    2.1012   48.3717 O.2     1  ZINC000523878927   -0.5700
     21 N21        -2.0674    1.0416   49.0151 N.am    1  ZINC000523878927   -0.6800
     22 C22        -1.4627    1.2499   47.7691 C.ar    1  ZINC000523878927    0.1500
     23 C23        -1.3276    0.1947   46.8769 C.ar    1  ZINC000523878927   -0.1200
     24 C24        -0.7313    0.4023   45.6485 C.ar    1  ZINC000523878927   -0.1300
     25 C25        -0.2681    1.6616   45.3067 C.ar    1  ZINC000523878927    0.0800
     26 F26         0.3152    1.8625   44.1048 F       1  ZINC000523878927   -0.1400
     27 C27        -0.4023    2.7153   46.1948 C.ar    1  ZINC000523878927   -0.1300
     28 C28        -1.0027    2.5131   47.4222 C.ar    1  ZINC000523878927   -0.0900
     29 C29        -6.2592    0.6391   50.7548 C.3     1  ZINC000523878927    0.1200
     30 C30       -11.5963   -0.9922   55.5585 C.3     1  ZINC000523878927   -0.1100
     31 H31       -13.0790    0.9380   56.7859 H       1  ZINC000523878927    0.0500
     32 H32       -12.3646    0.7859   58.4090 H       1  ZINC000523878927    0.0500
     33 H33       -11.3513    1.2866   57.0341 H       1  ZINC000523878927    0.0600
     34 H34       -10.7731   -1.0753   58.9041 H       1  ZINC000523878927    0.0600
     35 H35       -10.3537   -2.2494   57.6336 H       1  ZINC000523878927    0.0600
     36 H36        -9.6630    0.7237   57.6082 H       1  ZINC000523878927    0.0700
     37 H37        -8.5292   -0.6023   57.9609 H       1  ZINC000523878927    0.0600
     38 H38        -8.3373    0.1282   55.5991 H       1  ZINC000523878927    0.0600
     39 H39        -8.9312   -1.5465   55.7036 H       1  ZINC000523878927    0.0600
     40 H40        -9.9341   -1.3330   53.4252 H       1  ZINC000523878927    0.0700
     41 H41       -11.0678   -0.0070   53.0725 H       1  ZINC000523878927    0.0700
     42 H42        -8.8918    1.4027   53.6647 H       1  ZINC000523878927    0.3900
     43 H43        -7.4367    3.0482   51.9564 H       1  ZINC000523878927    0.0800
     44 H44        -7.0275    2.2338   53.4973 H       1  ZINC000523878927    0.0800
     45 H45        -5.0755    3.4786   52.0987 H       1  ZINC000523878927    0.1000
     46 H46        -4.7400    1.8716   52.8262 H       1  ZINC000523878927    0.0800
     47 H47        -3.4168    0.8274   51.1420 H       1  ZINC000523878927    0.4000
     48 H48        -1.5903    0.5650   49.7123 H       1  ZINC000523878927    0.4100
     49 H49        -1.6881   -0.7879   47.1436 H       1  ZINC000523878927    0.1400
     50 H50        -0.6260   -0.4183   44.9542 H       1  ZINC000523878927    0.1400
     51 H51        -0.0404    3.6969   45.9263 H       1  ZINC000523878927    0.1400
     52 H52        -1.1075    3.3353   48.1145 H       1  ZINC000523878927    0.1500
     53 H53        -5.7380   -0.2931   50.9727 H       1  ZINC000523878927    0.0700
     54 H54        -6.7878    0.5575   49.8052 H       1  ZINC000523878927    0.0800
     55 H55       -11.3564   -2.0359   55.3552 H       1  ZINC000523878927    0.0700
     56 H56       -12.4903   -0.7099   55.0025 H       1  ZINC000523878927    0.0700
@<TRIPOS>BOND
     1     1     2    1
     2     1    31    1
     3     1    32    1
     4     1    33    1
     5     2     3    1
     6     2    30    1
     7     2     4    1
     8     4     5    1
     9     4    34    1
    10     4    35    1
    11     5     6    1
    12     5    36    1
    13     5    37    1
    14     6     7    1
    15     6    38    1
    16     6    39    1
    17     7     8    1
    18     7     9    1
    19     7    30    1
    20     9    10    1
    21     9    40    1
    22     9    41    1
    23    10    11   am
    24    10    42    1
    25    11    12    2
    26    11    13   am
    27    13    29    1
    28    13    14    1
    29    14    15    1
    30    14    43    1
    31    14    44    1
    32    15    16    1
    33    15    45    1
    34    15    46    1
    35    16    17    1
    36    16    18    1
    37    16    29    1
    38    18    19   am
    39    18    47    1
    40    19    20    2
    41    19    21   am
    42    21    22    1
    43    21    48    1
    44    22    28   ar
    45    22    23   ar
    46    23    24   ar
    47    23    49    1
    48    24    25   ar
    49    24    50    1
    50    25    26    1
    51    25    27   ar
    52    27    28   ar
    53    27    51    1
    54    28    52    1
    55    29    53    1
    56    29    54    1
    57    30    55    1
    58    30    56    1
@<TRIPOS>SUBSTRUCTURE
     1 ZINC000523878927        1 TEMP              0 ****  ****    0 ROOT


##########                                Name:    ZINC001191386213
##########                DOCK_Rotatable_Bonds:                   6
##########                         Heavy_Atoms:                  29
##########                    Molecular_Weight:             392.433
##########                DOCK_Rotatable_Bonds:                   6
##########                       Formal_Charge:               -0.02
##########                     HBond_Acceptors:                   7
##########                        HBond_Donors:                   2
##########                         Heavy_Atoms:                  29
##########                          Grid_Score:          -30.873482
##########                     Grid_vdw_energy:          -30.995825
##########                      Grid_es_energy:            0.122342
##########           Internal_energy_repulsive:          158.419907

@<TRIPOS>MOLECULE
ZINC001191386213
 50 53 1 0 0
SMALL
USER_CHARGES


@<TRIPOS>ATOM
      1 C1         -1.7981    4.2956   53.5525 C.3     1  ZINC001191386213   -0.1700
      2 C2         -3.0266    3.4619   53.2941 C.2     1  ZINC001191386213    0.5100
      3 O3         -3.7890    3.2075   54.2024 O.2     1  ZINC001191386213   -0.5200
      4 N4         -3.2782    2.9990   52.0536 N.am    1  ZINC001191386213   -0.6800
      5 C5         -4.4190    2.2248   51.8135 C.ar    1  ZINC001191386213    0.1400
      6 C6         -4.7429    1.8483   50.5161 C.ar    1  ZINC001191386213   -0.1400
      7 C7         -5.8686    1.0834   50.2754 C.ar    1  ZINC001191386213   -0.1000
      8 C8         -6.6773    0.6896   51.3227 C.ar    1  ZINC001191386213   -0.1100
      9 C9         -6.3601    1.0632   52.6274 C.ar    1  ZINC001191386213    0.0100
     10 C10        -7.2288    0.6405   53.7545 C.2     1  ZINC001191386213    0.0700
     11 N11        -8.1618   -0.2872   53.7119 N.2     1  ZINC001191386213   -0.2500
     12 N12        -8.7326   -0.4127   54.8553 N.pl3   1  ZINC001191386213   -0.3800
     13 C13        -8.1818    0.4631   55.7482 C.2     1  ZINC001191386213   -0.0400
     14 C14        -8.5552    0.6316   57.1620 C.2     1  ZINC001191386213    0.6100
     15 O15        -8.1101    1.5656   57.8014 O.2     1  ZINC001191386213   -0.5100
     16 N16        -9.3903   -0.2491   57.7480 N.am    1  ZINC001191386213   -0.6200
     17 C17        -9.8438   -0.2004   59.1456 C.3     1  ZINC001191386213    0.0800
     18 C18       -10.7623   -1.4198   59.3721 C.3     1  ZINC001191386213   -0.1200
     19 C19       -10.3236   -2.3982   58.2507 C.3     1  ZINC001191386213   -0.0600
     20 H20        -9.4372   -2.9593   58.5464 H       1  ZINC001191386213    0.1000
     21 C21       -11.4481   -3.3286   57.8753 C.ar    1  ZINC001191386213   -0.1100
     22 C22       -12.6698   -2.8142   57.4854 C.ar    1  ZINC001191386213   -0.0900
     23 C23       -13.7017   -3.6676   57.1410 C.ar    1  ZINC001191386213   -0.1300
     24 C24       -13.5127   -5.0361   57.1867 C.ar    1  ZINC001191386213   -0.0900
     25 C25       -12.2916   -5.5530   57.5769 C.ar    1  ZINC001191386213   -0.1500
     26 C26       -11.2557   -4.6994   57.9156 C.ar    1  ZINC001191386213    0.1100
     27 F27       -10.0617   -5.2035   58.2971 F       1  ZINC001191386213   -0.1400
     28 C28       -10.0055   -1.4172   57.0918 C.3     1  ZINC001191386213    0.1200
     29 C29        -7.2003    1.1543   55.0638 C.2     1  ZINC001191386213   -0.1300
     30 C30        -5.2234    1.8283   52.8714 C.ar    1  ZINC001191386213   -0.1000
     31 H31        -1.7641    4.5758   54.6054 H       1  ZINC001191386213    0.1000
     32 H32        -0.9081    3.7186   53.3012 H       1  ZINC001191386213    0.0900
     33 H33        -1.8335    5.1951   52.9380 H       1  ZINC001191386213    0.0900
     34 H34        -2.6685    3.2025   51.3270 H       1  ZINC001191386213    0.4100
     35 H35        -4.1137    2.1546   49.6934 H       1  ZINC001191386213    0.1300
     36 H36        -6.1164    0.7931   49.2651 H       1  ZINC001191386213    0.1300
     37 H37        -7.5563    0.0922   51.1309 H       1  ZINC001191386213    0.1300
     38 H38        -9.4486   -1.0358   55.0553 H       1  ZINC001191386213    0.4400
     39 H39        -8.9858   -0.2530   59.8158 H       1  ZINC001191386213    0.0700
     40 H40       -10.3996    0.7203   59.3232 H       1  ZINC001191386213    0.0800
     41 H41       -10.5875   -1.8568   60.3553 H       1  ZINC001191386213    0.0900
     42 H42       -11.8093   -1.1413   59.2531 H       1  ZINC001191386213    0.0900
     43 H43       -12.8189   -1.7451   57.4499 H       1  ZINC001191386213    0.1300
     44 H44       -14.6563   -3.2647   56.8363 H       1  ZINC001191386213    0.1300
     45 H45       -14.3196   -5.7018   56.9178 H       1  ZINC001191386213    0.1300
     46 H46       -12.1444   -6.6223   57.6132 H       1  ZINC001191386213    0.1400
     47 H47       -10.9216   -1.1302   56.5755 H       1  ZINC001191386213    0.0800
     48 H48        -9.3016   -1.8703   56.3937 H       1  ZINC001191386213    0.0900
     49 H49        -6.5539    1.9285   55.4499 H       1  ZINC001191386213    0.1700
     50 H50        -4.9736    2.1202   53.8808 H       1  ZINC001191386213    0.1500
@<TRIPOS>BOND
     1     1     2    1
     2     1    31    1
     3     1    32    1
     4     1    33    1
     5     2     3    2
     6     2     4   am
     7     4     5    1
     8     4    34    1
     9     5    30   ar
    10     5     6   ar
    11     6     7   ar
    12     6    35    1
    13     7     8   ar
    14     7    36    1
    15     8     9   ar
    16     8    37    1
    17     9    10    1
    18     9    30   ar
    19    10    29    1
    20    10    11    2
    21    11    12    1
    22    12    13    1
    23    12    38    1
    24    13    14    1
    25    13    29    2
    26    14    15    2
    27    14    16   am
    28    16    28    1
    29    16    17    1
    30    17    18    1
    31    17    39    1
    32    17    40    1
    33    18    19    1
    34    18    41    1
    35    18    42    1
    36    19    20    1
    37    19    21    1
    38    19    28    1
    39    21    26   ar
    40    21    22   ar
    41    22    23   ar
    42    22    43    1
    43    23    24   ar
    44    23    44    1
    45    24    25   ar
    46    24    45    1
    47    25    26   ar
    48    25    46    1
    49    26    27    1
    50    28    47    1
    51    28    48    1
    52    29    49    1
    53    30    50    1
@<TRIPOS>SUBSTRUCTURE
     1 ZINC001191386213        1 TEMP              0 ****  ****    0 ROOT


##########                                Name:    ZINC000438893617
##########                DOCK_Rotatable_Bonds:                   5
##########                         Heavy_Atoms:                  29
##########                    Molecular_Weight:             412.596
##########                DOCK_Rotatable_Bonds:                   5
##########                       Formal_Charge:           0.0600001
##########                     HBond_Acceptors:                   5
##########                        HBond_Donors:                   0
##########                         Heavy_Atoms:                  29
##########                          Grid_Score:          -30.869415
##########                     Grid_vdw_energy:          -30.676538
##########                      Grid_es_energy:           -0.192878
##########           Internal_energy_repulsive:          165.515045

@<TRIPOS>MOLECULE
ZINC000438893617
 61 66 1 0 0
SMALL
USER_CHARGES


@<TRIPOS>ATOM
      1 C1         -7.1255    4.7423   50.7962 C.3     1  ZINC000438893617   -0.1000
      2 C2         -6.5733    3.3791   50.4680 C.2     1  ZINC000438893617   -0.0900
      3 C3         -7.1102    2.2541   50.9431 C.2     1  ZINC000438893617   -0.1600
      4 C4         -8.3115    2.1802   51.8500 C.3     1  ZINC000438893617   -0.0400
      5 H5         -9.2124    2.6677   51.4774 H       1  ZINC000438893617    0.1400
      6 C6         -8.0610    2.2167   53.3588 C.3     1  ZINC000438893617   -0.1400
      7 C7         -8.4891    0.9107   52.6851 C.3     1  ZINC000438893617   -0.1800
      8 H8         -7.7370    0.1290   52.5790 H       1  ZINC000438893617    0.1300
      9 C9         -9.8962    0.4298   52.9306 C.2     1  ZINC000438893617    0.5500
     10 O10       -10.7873    0.7502   52.1730 O.2     1  ZINC000438893617   -0.5300
     11 N11       -10.1640   -0.3564   53.9921 N.am    1  ZINC000438893617   -0.6100
     12 C12        -9.0956   -0.7461   54.9228 C.3     1  ZINC000438893617    0.0900
     13 C13        -9.5094   -0.3386   56.3423 C.3     1  ZINC000438893617    0.1000
     14 N14       -10.8753   -0.8210   56.5900 N.am    1  ZINC000438893617   -0.6100
     15 C15       -11.1434   -1.6064   57.6519 C.2     1  ZINC000438893617    0.5300
     16 O16       -10.2534   -1.9212   58.4134 O.2     1  ZINC000438893617   -0.5300
     17 C17       -12.5490   -2.0935   57.8932 C.3     1  ZINC000438893617   -0.0700
     18 C18       -12.9963   -2.9634   56.7166 C.3     1  ZINC000438893617   -0.1100
     19 C19       -14.4232   -3.4579   56.9616 C.3     1  ZINC000438893617   -0.0800
     20 C20       -15.3630   -2.2579   57.0950 C.3     1  ZINC000438893617   -0.1100
     21 C21       -14.9157   -1.3881   58.2715 C.3     1  ZINC000438893617   -0.0800
     22 C22       -14.9557   -2.2127   59.5596 C.3     1  ZINC000438893617   -0.1100
     23 C23       -14.0159   -3.4127   59.4262 C.3     1  ZINC000438893617   -0.0900
     24 C24       -14.4633   -4.2826   58.2497 C.3     1  ZINC000438893617   -0.1100
     25 C25       -12.5889   -2.9182   59.1812 C.3     1  ZINC000438893617   -0.0900
     26 C26       -13.4888   -0.8935   58.0265 C.3     1  ZINC000438893617   -0.1200
     27 C27       -11.9438   -0.4314   55.6592 C.3     1  ZINC000438893617    0.0700
     28 C28       -11.5310   -0.8342   54.2428 C.3     1  ZINC000438893617    0.1000
     29 S29        -6.2018    0.8703   50.3488 S.3     1  ZINC000438893617    0.1000
     30 C30        -5.1119    1.9284   49.4623 C.2     1  ZINC000438893617   -0.2100
     31 C31        -5.4741    3.1990   49.6461 C.2     1  ZINC000438893617   -0.1300
     32 H32        -7.8786    5.0167   50.0574 H       1  ZINC000438893617    0.0700
     33 H33        -7.5793    4.7217   51.7870 H       1  ZINC000438893617    0.0700
     34 H34        -6.3182    5.4745   50.7812 H       1  ZINC000438893617    0.0700
     35 H35        -7.0273    2.2942   53.6956 H       1  ZINC000438893617    0.1100
     36 H36        -8.7973    2.7280   53.9790 H       1  ZINC000438893617    0.1100
     37 H37        -8.9488   -1.8253   54.8802 H       1  ZINC000438893617    0.0800
     38 H38        -8.1704   -0.2376   54.6514 H       1  ZINC000438893617    0.1000
     39 H39        -8.8268   -0.7858   57.0649 H       1  ZINC000438893617    0.1100
     40 H40        -9.4828    0.7472   56.4336 H       1  ZINC000438893617    0.0700
     41 H41       -12.9679   -2.3758   55.7990 H       1  ZINC000438893617    0.0800
     42 H42       -12.3268   -3.8183   56.6216 H       1  ZINC000438893617    0.0700
     43 H43       -14.7420   -4.0775   56.1233 H       1  ZINC000438893617    0.0800
     44 H44       -15.3346   -1.6703   56.1773 H       1  ZINC000438893617    0.0600
     45 H45       -16.3797   -2.6102   57.2694 H       1  ZINC000438893617    0.0700
     46 H46       -15.5852   -0.5332   58.3665 H       1  ZINC000438893617    0.0800
     47 H47       -14.6370   -1.5931   60.3978 H       1  ZINC000438893617    0.0600
     48 H48       -15.9723   -2.5650   59.7341 H       1  ZINC000438893617    0.0700
     49 H49       -14.0443   -4.0003   60.3439 H       1  ZINC000438893617    0.0700
     50 H50       -15.4799   -4.6349   58.4242 H       1  ZINC000438893617    0.0700
     51 H51       -13.7938   -5.1375   58.1547 H       1  ZINC000438893617    0.0600
     52 H52       -11.9194   -3.7731   59.0862 H       1  ZINC000438893617    0.0700
     53 H53       -12.2702   -2.2985   60.0194 H       1  ZINC000438893617    0.0700
     54 H54       -13.1700   -0.2739   58.8648 H       1  ZINC000438893617    0.0700
     55 H55       -13.4603   -0.3060   57.1089 H       1  ZINC000438893617    0.0800
     56 H56       -12.8689   -0.9398   55.9306 H       1  ZINC000438893617    0.1300
     57 H57       -12.0905    0.6479   55.7019 H       1  ZINC000438893617    0.0800
     58 H58       -12.2144   -0.3865   53.5213 H       1  ZINC000438893617    0.1100
     59 H59       -11.5562   -1.9200   54.1493 H       1  ZINC000438893617    0.0700
     60 H60        -4.2795    1.5995   48.8579 H       1  ZINC000438893617    0.1700
     61 H61        -4.9450    4.0251   49.1945 H       1  ZINC000438893617    0.1400
@<TRIPOS>BOND
     1     1     2    1
     2     1    32    1
     3     1    33    1
     4     1    34    1
     5     2    31    1
     6     2     3    2
     7     3     4    1
     8     3    29    1
     9     4     5    1
    10     4     7    1
    11     4     6    1
    12     6     7    1
    13     6    35    1
    14     6    36    1
    15     7     8    1
    16     7     9    1
    17     9    10    2
    18     9    11   am
    19    11    28    1
    20    11    12    1
    21    12    13    1
    22    12    37    1
    23    12    38    1
    24    13    14    1
    25    13    39    1
    26    13    40    1
    27    14    15   am
    28    14    27    1
    29    15    16    2
    30    15    17    1
    31    17    25    1
    32    17    26    1
    33    17    18    1
    34    18    19    1
    35    18    41    1
    36    18    42    1
    37    19    24    1
    38    19    20    1
    39    19    43    1
    40    20    21    1
    41    20    44    1
    42    20    45    1
    43    21    22    1
    44    21    26    1
    45    21    46    1
    46    22    23    1
    47    22    47    1
    48    22    48    1
    49    23    24    1
    50    23    25    1
    51    23    49    1
    52    24    50    1
    53    24    51    1
    54    25    52    1
    55    25    53    1
    56    26    54    1
    57    26    55    1
    58    27    28    1
    59    27    56    1
    60    27    57    1
    61    28    58    1
    62    28    59    1
    63    29    30    1
    64    30    31    2
    65    30    60    1
    66    31    61    1
@<TRIPOS>SUBSTRUCTURE
     1 ZINC000438893617        1 TEMP              0 ****  ****    0 ROOT


##########                                Name:    ZINC001009116151
##########                DOCK_Rotatable_Bonds:                   6
##########                         Heavy_Atoms:                  25
##########                    Molecular_Weight:             342.481
##########                DOCK_Rotatable_Bonds:                   6
##########                       Formal_Charge:           0.0600006
##########                     HBond_Acceptors:                   4
##########                        HBond_Donors:                   1
##########                         Heavy_Atoms:                  25
##########                          Grid_Score:          -30.841486
##########                     Grid_vdw_energy:          -29.951290
##########                      Grid_es_energy:           -0.890196
##########           Internal_energy_repulsive:           10.699244

@<TRIPOS>MOLECULE
ZINC001009116151
 55 59 1 0 0
SMALL
USER_CHARGES


@<TRIPOS>ATOM
      1 O1         -4.9160    3.4424   49.0260 O.2     1  ZINC001009116151   -0.5400
      2 C2         -4.2968    2.5097   49.4924 C.2     1  ZINC001009116151    0.5200
      3 N3         -4.9560    1.4732   50.0470 N.am    1  ZINC001009116151   -0.7300
      4 C4         -6.4202    1.4760   50.0921 C.3     1  ZINC001009116151    0.1500
      5 C5         -6.8956    0.6402   51.2822 C.3     1  ZINC001009116151   -0.1200
      6 H6         -6.6327   -0.4171   51.2481 H       1  ZINC001009116151    0.1100
      7 C7         -8.2379    1.0130   51.9145 C.3     1  ZINC001009116151   -0.1700
      8 H8         -8.8412    1.8034   51.4680 H       1  ZINC001009116151    0.1200
      9 C9         -8.9682   -0.0562   52.7555 C.3     1  ZINC001009116151    0.1300
     10 N10        -8.4127    0.0981   54.1202 N.am    1  ZINC001009116151   -0.6200
     11 C11        -9.0709    0.0234   55.2939 C.2     1  ZINC001009116151    0.5500
     12 O12        -8.4705    0.1750   56.3367 O.2     1  ZINC001009116151   -0.5300
     13 C13       -10.5531   -0.2484   55.3105 C.3     1  ZINC001009116151   -0.1200
     14 C14       -10.8486   -1.7342   55.0006 C.3     1  ZINC001009116151   -0.0900
     15 C15       -10.9338   -2.3995   56.3546 C.2     1  ZINC001009116151   -0.1800
     16 C16       -11.0851   -1.5162   57.3035 C.2     1  ZINC001009116151   -0.1500
     17 C17       -11.1260   -0.1145   56.7406 C.3     1  ZINC001009116151   -0.0900
     18 C18        -6.9698    0.3531   53.9020 C.3     1  ZINC001009116151    0.1200
     19 C19        -6.9201    1.3168   52.6542 C.3     1  ZINC001009116151   -0.1600
     20 H20        -6.5351    2.3246   52.8093 H       1  ZINC001009116151    0.1300
     21 C21        -2.7905    2.5067   49.4460 C.3     1  ZINC001009116151   -0.0700
     22 C22        -2.2685    3.9158   49.7339 C.3     1  ZINC001009116151   -0.1100
     23 C23        -0.7393    3.9127   49.6868 C.3     1  ZINC001009116151   -0.1100
     24 C24        -0.2417    2.5015   49.3675 C.3     1  ZINC001009116151   -0.0900
     25 C25        -0.7205    1.5344   50.4520 C.3     1  ZINC001009116151   -0.1100
     26 C26        -2.2497    1.5374   50.4991 C.3     1  ZINC001009116151   -0.0900
     27 C27        -0.7946    2.0606   48.0108 C.3     1  ZINC001009116151   -0.1100
     28 C28        -2.3239    2.0637   48.0578 C.3     1  ZINC001009116151   -0.1000
     29 H29        -4.4609    0.7253   50.4165 H       1  ZINC001009116151    0.4000
     30 H30        -6.7784    2.4997   50.2009 H       1  ZINC001009116151    0.0800
     31 H31        -6.8130    1.0500   49.1689 H       1  ZINC001009116151    0.0700
     32 H32       -10.0420    0.1310   52.7588 H       1  ZINC001009116151    0.0900
     33 H33        -8.7565   -1.0533   52.3694 H       1  ZINC001009116151    0.0800
     34 H34       -11.0770    0.4085   54.6161 H       1  ZINC001009116151    0.1100
     35 H35       -11.7958   -1.8304   54.4700 H       1  ZINC001009116151    0.0900
     36 H36       -10.0383   -2.1682   54.4146 H       1  ZINC001009116151    0.0800
     37 H37       -10.8772   -3.4658   56.5160 H       1  ZINC001009116151    0.1300
     38 H38       -11.1702   -1.7557   58.3532 H       1  ZINC001009116151    0.1300
     39 H39       -10.5045    0.5528   57.3377 H       1  ZINC001009116151    0.0900
     40 H40       -12.1523    0.2509   56.7059 H       1  ZINC001009116151    0.0900
     41 H41        -6.5359    0.8490   54.7703 H       1  ZINC001009116151    0.0900
     42 H42        -6.4460   -0.5801   53.6950 H       1  ZINC001009116151    0.0800
     43 H43        -2.6537    4.6062   48.9836 H       1  ZINC001009116151    0.0700
     44 H44        -2.6010    4.2313   50.7228 H       1  ZINC001009116151    0.0700
     45 H45        -0.3982    4.6017   48.9141 H       1  ZINC001009116151    0.0700
     46 H46        -0.3454    4.2268   50.6534 H       1  ZINC001009116151    0.0700
     47 H47         0.8478    2.4994   49.3339 H       1  ZINC001009116151    0.0700
     48 H48        -0.3660    0.5290   50.2245 H       1  ZINC001009116151    0.0700
     49 H49        -0.3266    1.8484   51.4186 H       1  ZINC001009116151    0.0700
     50 H50        -2.5822    1.8530   51.4881 H       1  ZINC001009116151    0.0700
     51 H51        -2.6217    0.5336   50.2940 H       1  ZINC001009116151    0.0700
     52 H52        -0.4536    2.7497   47.2380 H       1  ZINC001009116151    0.0700
     53 H53        -0.4402    1.0553   47.7833 H       1  ZINC001009116151    0.0700
     54 H54        -2.6957    1.0598   47.8527 H       1  ZINC001009116151    0.0700
     55 H55        -2.7092    2.7542   47.3075 H       1  ZINC001009116151    0.0700
@<TRIPOS>BOND
     1     1     2    2
     2     2     3   am
     3     2    21    1
     4     3     4    1
     5     3    29    1
     6     4     5    1
     7     4    30    1
     8     4    31    1
     9     5     6    1
    10     5    19    1
    11     5     7    1
    12     7     8    1
    13     7    19    1
    14     7     9    1
    15     9    10    1
    16     9    32    1
    17     9    33    1
    18    10    11   am
    19    10    18    1
    20    11    12    2
    21    11    13    1
    22    13    17    1
    23    13    14    1
    24    13    34    1
    25    14    15    1
    26    14    35    1
    27    14    36    1
    28    15    16    2
    29    15    37    1
    30    16    17    1
    31    16    38    1
    32    17    39    1
    33    17    40    1
    34    18    19    1
    35    18    41    1
    36    18    42    1
    37    19    20    1
    38    21    26    1
    39    21    28    1
    40    21    22    1
    41    22    23    1
    42    22    43    1
    43    22    44    1
    44    23    24    1
    45    23    45    1
    46    23    46    1
    47    24    25    1
    48    24    27    1
    49    24    47    1
    50    25    26    1
    51    25    48    1
    52    25    49    1
    53    26    50    1
    54    26    51    1
    55    27    28    1
    56    27    52    1
    57    27    53    1
    58    28    54    1
    59    28    55    1
@<TRIPOS>SUBSTRUCTURE
     1 ZINC001009116151        1 TEMP              0 ****  ****    0 ROOT


##########                                Name:    ZINC000518242403
##########                DOCK_Rotatable_Bonds:                   6
##########                         Heavy_Atoms:                  27
##########                    Molecular_Weight:             370.405
##########                DOCK_Rotatable_Bonds:                   6
##########                       Formal_Charge:          -0.0200004
##########                     HBond_Acceptors:                   7
##########                        HBond_Donors:                   1
##########                         Heavy_Atoms:                  27
##########                          Grid_Score:          -30.832560
##########                     Grid_vdw_energy:          -30.843632
##########                      Grid_es_energy:            0.011072
##########           Internal_energy_repulsive:           17.228289

@<TRIPOS>MOLECULE
ZINC000518242403
 49 52 1 0 0
SMALL
USER_CHARGES


@<TRIPOS>ATOM
      1 C1         -7.7402    3.7606   49.6574 C.3     1  ZINC000518242403   -0.1800
      2 C2         -6.4595    3.6551   50.4879 C.3     1  ZINC000518242403    0.1000
      3 N3         -5.7295    2.4432   50.1078 N.am    1  ZINC000518242403   -0.6200
      4 C4         -6.2450    1.1267   50.4916 C.3     1  ZINC000518242403    0.1500
      5 C5         -7.0372    1.2493   51.7947 C.3     1  ZINC000518242403    0.0300
      6 H6         -7.9394    1.8362   51.6226 H       1  ZINC000518242403    0.0900
      7 C7         -7.4182   -0.1481   52.3022 C.3     1  ZINC000518242403    0.0300
      8 O8         -8.1445    0.0023   53.5268 O.3     1  ZINC000518242403   -0.3000
      9 C9         -7.6230    0.8604   54.4456 C.ar    1  ZINC000518242403    0.0500
     10 C10        -8.0502    0.7891   55.7629 C.ar    1  ZINC000518242403   -0.1100
     11 C11        -7.5321    1.6561   56.7068 C.ar    1  ZINC000518242403   -0.1200
     12 C12        -6.5872    2.5959   56.3406 C.ar    1  ZINC000518242403   -0.1200
     13 C13        -6.1558    2.6712   55.0293 C.ar    1  ZINC000518242403   -0.1100
     14 C14        -6.6706    1.8038   54.0777 C.ar    1  ZINC000518242403    0.0500
     15 O15        -6.2306    1.8852   52.7922 O.3     1  ZINC000518242403   -0.3000
     16 C16        -4.5836    2.5394   49.4048 C.2     1  ZINC000518242403    0.7100
     17 O17        -4.1549    3.6322   49.0875 O.2     1  ZINC000518242403   -0.5700
     18 N18        -3.9128    1.4245   49.0536 N.am    1  ZINC000518242403   -0.6800
     19 C19        -2.7214    1.5245   48.3227 C.ar    1  ZINC000518242403    0.1700
     20 C20        -2.7603    1.8409   46.9719 C.ar    1  ZINC000518242403   -0.1000
     21 C21        -1.5824    1.9400   46.2500 C.ar    1  ZINC000518242403    0.0500
     22 C22        -0.3606    1.7219   46.8819 C.ar    1  ZINC000518242403    0.0200
     23 C23        -0.3261    1.4056   48.2304 C.ar    1  ZINC000518242403   -0.0800
     24 C24        -1.5015    1.3128   48.9510 C.ar    1  ZINC000518242403   -0.1000
     25 C25        -1.4601    0.9686   50.4177 C.3     1  ZINC000518242403   -0.1100
     26 O26         0.6389    1.8773   45.9639 O.3     1  ZINC000518242403   -0.3100
     27 C27        -0.0034    1.7898   44.6782 C.3     1  ZINC000518242403    0.2100
     28 O28        -1.3489    2.2321   44.9372 O.3     1  ZINC000518242403   -0.3100
     29 H29        -7.4839    3.8076   48.5989 H       1  ZINC000518242403    0.0600
     30 H30        -8.3655    2.8870   49.8414 H       1  ZINC000518242403    0.0600
     31 H31        -8.2833    4.6623   49.9402 H       1  ZINC000518242403    0.0700
     32 H32        -5.8342    4.5287   50.3038 H       1  ZINC000518242403    0.1000
     33 H33        -6.7157    3.6081   51.5463 H       1  ZINC000518242403    0.0700
     34 H34        -6.8969    0.7481   49.7044 H       1  ZINC000518242403    0.1100
     35 H35        -5.4122    0.4384   50.6361 H       1  ZINC000518242403    0.0900
     36 H36        -8.0430   -0.6498   51.5634 H       1  ZINC000518242403    0.1300
     37 H37        -6.5158   -0.7333   52.4795 H       1  ZINC000518242403    0.0800
     38 H38        -8.7886    0.0558   56.0516 H       1  ZINC000518242403    0.1300
     39 H39        -7.8661    1.5988   57.7322 H       1  ZINC000518242403    0.1300
     40 H40        -6.1853    3.2727   57.0799 H       1  ZINC000518242403    0.1300
     41 H41        -5.4174    3.4064   54.7457 H       1  ZINC000518242403    0.1300
     42 H42        -4.2548    0.5528   49.3067 H       1  ZINC000518242403    0.4100
     43 H43        -3.7088    2.0093   46.4837 H       1  ZINC000518242403    0.1500
     44 H44         0.6213    1.2365   48.7204 H       1  ZINC000518242403    0.1400
     45 H45        -1.3864    1.8845   51.0039 H       1  ZINC000518242403    0.0800
     46 H46        -2.3700    0.4343   50.6913 H       1  ZINC000518242403    0.0700
     47 H47        -0.5941    0.3379   50.6185 H       1  ZINC000518242403    0.0800
     48 H48         0.4850    2.4490   43.9604 H       1  ZINC000518242403    0.1300
     49 H49        -0.0010    0.7610   44.3181 H       1  ZINC000518242403    0.0900
@<TRIPOS>BOND
     1     1     2    1
     2     1    29    1
     3     1    30    1
     4     1    31    1
     5     2     3    1
     6     2    32    1
     7     2    33    1
     8     3     4    1
     9     3    16   am
    10     4     5    1
    11     4    34    1
    12     4    35    1
    13     5     6    1
    14     5    15    1
    15     5     7    1
    16     7     8    1
    17     7    36    1
    18     7    37    1
    19     8     9    1
    20     9    14   ar
    21     9    10   ar
    22    10    11   ar
    23    10    38    1
    24    11    12   ar
    25    11    39    1
    26    12    13   ar
    27    12    40    1
    28    13    14   ar
    29    13    41    1
    30    14    15    1
    31    16    17    2
    32    16    18   am
    33    18    19    1
    34    18    42    1
    35    19    24   ar
    36    19    20   ar
    37    20    21   ar
    38    20    43    1
    39    21    28    1
    40    21    22   ar
    41    22    23   ar
    42    22    26    1
    43    23    24   ar
    44    23    44    1
    45    24    25    1
    46    25    45    1
    47    25    46    1
    48    25    47    1
    49    26    27    1
    50    27    28    1
    51    27    48    1
    52    27    49    1
@<TRIPOS>SUBSTRUCTURE
     1 ZINC000518242403        1 TEMP              0 ****  ****    0 ROOT


##########                                Name:    ZINC000851838607
##########                DOCK_Rotatable_Bonds:                  12
##########                         Heavy_Atoms:                  23
##########                    Molecular_Weight:             352.495
##########                DOCK_Rotatable_Bonds:                  12
##########                       Formal_Charge:          0.00999896
##########                     HBond_Acceptors:                   8
##########                        HBond_Donors:                   2
##########                         Heavy_Atoms:                  23
##########                          Grid_Score:          -30.828424
##########                     Grid_vdw_energy:          -30.058044
##########                      Grid_es_energy:           -0.770380
##########           Internal_energy_repulsive:           22.420809

@<TRIPOS>MOLECULE
ZINC000851838607
 55 54 1 0 0
SMALL
USER_CHARGES


@<TRIPOS>ATOM
      1 C1          2.0467    2.4247   48.5576 C.3     1  ZINC000851838607    0.0300
      2 O2          2.2283    1.4786   47.5021 O.3     1  ZINC000851838607   -0.3800
      3 C3          1.0114    0.9057   47.0193 C.3     1  ZINC000851838607    0.0800
      4 C4          0.2490    1.9463   46.1966 C.3     1  ZINC000851838607   -0.6000
      5 H5         -0.0611    2.7659   46.8450 H       1  ZINC000851838607    0.1400
      6 C6          1.1572    2.4870   45.0903 C.3     1  ZINC000851838607   -0.1400
      7 S7         -1.2155    1.1754   45.4540 S.o2    1  ZINC000851838607    2.6200
      8 O8         -1.9526    2.1283   44.7005 O.2     1  ZINC000851838607   -0.9400
      9 O9         -0.8876   -0.0950   44.9083 O.2     1  ZINC000851838607   -0.9500
     10 N10        -2.1963    0.8259   46.7418 N.am    1  ZINC000851838607   -1.1200
     11 C11        -2.6711    1.9026   47.6144 C.3     1  ZINC000851838607    0.1100
     12 C12        -2.2115    1.6364   49.0492 C.3     1  ZINC000851838607   -0.1400
     13 C13        -3.0257    2.5005   50.0142 C.3     1  ZINC000851838607    0.1700
     14 H14        -3.6473    3.1926   49.4461 H       1  ZINC000851838607    0.1000
     15 N15        -3.8793    1.6408   50.8379 N.am    1  ZINC000851838607   -0.7100
     16 C16        -5.1242    1.3318   50.4239 C.2     1  ZINC000851838607    0.6500
     17 O17        -5.5390    1.7677   49.3682 O.2     1  ZINC000851838607   -0.5600
     18 O18        -5.9081    0.5404   51.1800 O.3     1  ZINC000851838607   -0.3700
     19 C19        -6.7611    1.1958   52.1553 C.3     1  ZINC000851838607    0.1400
     20 C20        -7.2402    2.5364   51.5948 C.3     1  ZINC000851838607   -0.1800
     21 C21        -7.9699    0.3069   52.4547 C.3     1  ZINC000851838607   -0.1400
     22 C22        -5.9721    1.4347   53.4442 C.3     1  ZINC000851838607   -0.1800
     23 C23        -2.0759    3.2909   50.9165 C.3     1  ZINC000851838607   -0.1100
     24 C24        -1.5656    4.5222   50.1653 C.3     1  ZINC000851838607   -0.1500
     25 C25        -2.8212    3.7349   52.1768 C.3     1  ZINC000851838607   -0.1400
     26 H26         1.4219    3.2458   48.2060 H       1  ZINC000851838607    0.0400
     27 H27         1.5630    1.9367   49.4038 H       1  ZINC000851838607    0.0500
     28 H28         3.0166    2.8132   48.8680 H       1  ZINC000851838607    0.0900
     29 H29         1.2393    0.0433   46.3929 H       1  ZINC000851838607    0.0700
     30 H30         0.3985    0.5898   47.8635 H       1  ZINC000851838607    0.0600
     31 H31         0.5876    3.1598   44.4492 H       1  ZINC000851838607    0.0700
     32 H32         1.9905    3.0292   45.5369 H       1  ZINC000851838607    0.0900
     33 H33         1.5402    1.6569   44.4967 H       1  ZINC000851838607    0.0700
     34 H34        -2.4565   -0.0917   46.9183 H       1  ZINC000851838607    0.4200
     35 H35        -2.2630    2.8538   47.2727 H       1  ZINC000851838607    0.0700
     36 H36        -3.7599    1.9423   47.5831 H       1  ZINC000851838607    0.0800
     37 H37        -2.3612    0.5838   49.2893 H       1  ZINC000851838607    0.0800
     38 H38        -1.1541    1.8838   49.1438 H       1  ZINC000851838607    0.1000
     39 H39        -3.5486    1.2938   51.6812 H       1  ZINC000851838607    0.4100
     40 H40        -7.8024    2.3662   50.6766 H       1  ZINC000851838607    0.0600
     41 H41        -7.8805    3.0283   52.3270 H       1  ZINC000851838607    0.0700
     42 H42        -6.3791    3.1696   51.3815 H       1  ZINC000851838607    0.0900
     43 H43        -7.6286   -0.6482   52.8540 H       1  ZINC000851838607    0.0700
     44 H44        -8.6103    0.7988   53.1868 H       1  ZINC000851838607    0.0800
     45 H45        -8.5320    0.1368   51.5364 H       1  ZINC000851838607    0.0700
     46 H46        -5.1109    2.0679   53.2311 H       1  ZINC000851838607    0.0900
     47 H47        -6.6125    1.9266   54.1764 H       1  ZINC000851838607    0.0700
     48 H48        -5.6308    0.4795   53.8436 H       1  ZINC000851838607    0.0600
     49 H49        -1.2320    2.6604   51.1965 H       1  ZINC000851838607    0.0700
     50 H50        -2.4095    5.1526   49.8853 H       1  ZINC000851838607    0.0600
     51 H51        -0.8890    5.0853   50.8082 H       1  ZINC000851838607    0.0600
     52 H52        -1.0346    4.2059   49.2675 H       1  ZINC000851838607    0.0600
     53 H53        -3.1848    2.8577   52.7119 H       1  ZINC000851838607    0.0500
     54 H54        -2.1446    4.2980   52.8196 H       1  ZINC000851838607    0.0500
     55 H55        -3.6651    4.3654   51.8968 H       1  ZINC000851838607    0.0700
@<TRIPOS>BOND
     1     1     2    1
     2     1    26    1
     3     1    27    1
     4     1    28    1
     5     2     3    1
     6     3     4    1
     7     3    29    1
     8     3    30    1
     9     4     5    1
    10     4     6    1
    11     4     7    1
    12     6    31    1
    13     6    32    1
    14     6    33    1
    15     7     8    2
    16     7     9    2
    17     7    10   am
    18    10    11    1
    19    10    34    1
    20    11    12    1
    21    11    35    1
    22    11    36    1
    23    12    13    1
    24    12    37    1
    25    12    38    1
    26    13    14    1
    27    13    15    1
    28    13    23    1
    29    15    16   am
    30    15    39    1
    31    16    17    2
    32    16    18    1
    33    18    19    1
    34    19    20    1
    35    19    21    1
    36    19    22    1
    37    20    40    1
    38    20    41    1
    39    20    42    1
    40    21    43    1
    41    21    44    1
    42    21    45    1
    43    22    46    1
    44    22    47    1
    45    22    48    1
    46    23    24    1
    47    23    25    1
    48    23    49    1
    49    24    50    1
    50    24    51    1
    51    24    52    1
    52    25    53    1
    53    25    54    1
    54    25    55    1
@<TRIPOS>SUBSTRUCTURE
     1 ZINC000851838607        1 TEMP              0 ****  ****    0 ROOT


##########                                Name:    ZINC001139743874
##########                DOCK_Rotatable_Bonds:                   5
##########                         Heavy_Atoms:                  28
##########                    Molecular_Weight:             382.506
##########                DOCK_Rotatable_Bonds:                   5
##########                       Formal_Charge:           0.0199992
##########                     HBond_Acceptors:                   6
##########                        HBond_Donors:                   0
##########                         Heavy_Atoms:                  28
##########                          Grid_Score:          -30.796038
##########                     Grid_vdw_energy:          -30.459187
##########                      Grid_es_energy:           -0.336850
##########           Internal_energy_repulsive:           16.444668

@<TRIPOS>MOLECULE
ZINC001139743874
 58 61 1 0 0
SMALL
USER_CHARGES


@<TRIPOS>ATOM
      1 C1         -2.0909    3.6100   48.9593 C.3     1  ZINC001139743874   -0.1800
      2 C2         -2.7256    2.4928   49.7900 C.3     1  ZINC001139743874    0.1400
      3 C3         -1.8910    1.2179   49.6525 C.3     1  ZINC001139743874   -0.1800
      4 C4         -2.7738    2.9148   51.2599 C.3     1  ZINC001139743874   -0.1400
      5 O5         -4.0742    2.2422   49.3139 O.3     1  ZINC001139743874   -0.3600
      6 C6         -5.0479    3.0434   49.7859 C.2     1  ZINC001139743874    0.6500
      7 O7         -4.9397    4.2502   49.6934 O.2     1  ZINC001139743874   -0.5700
      8 N8         -6.1424    2.5070   50.3610 N.am    1  ZINC001139743874   -0.5900
      9 C9         -7.1849    3.3423   50.8671 C.3     1  ZINC001139743874    0.1000
     10 C10        -6.9930    3.8550   52.3228 C.3     1  ZINC001139743874   -0.1300
     11 C11        -6.4051    2.7102   53.1976 C.3     1  ZINC001139743874   -0.0900
     12 C12        -6.9916    1.3832   52.8434 C.3     1  ZINC001139743874   -0.0800
     13 C13        -7.4525    0.5199   54.0238 C.3     1  ZINC001139743874    0.0100
     14 N14        -8.7876    1.1230   53.8071 N.3     1  ZINC001139743874   -0.4700
     15 C15        -9.8461    0.1098   53.9118 C.3     1  ZINC001139743874    0.0600
     16 C16        -9.9593   -0.3525   55.3416 C.ar    1  ZINC001139743874   -0.1200
     17 C17        -9.8943    0.5739   56.3806 C.ar    1  ZINC001139743874    0.1500
     18 N18        -9.9893    0.2070   57.6357 N.ar    1  ZINC001139743874   -0.4600
     19 C19       -10.1534   -1.0741   57.9732 C.ar    1  ZINC001139743874    0.0800
     20 C20       -10.2557   -1.4652   59.3234 C.ar    1  ZINC001139743874   -0.0400
     21 C21       -10.4228   -2.7912   59.6006 C.ar    1  ZINC001139743874   -0.1600
     22 C22       -10.4877   -3.7180   58.5614 C.ar    1  ZINC001139743874    0.1300
     23 N23       -10.3922   -3.3513   57.3065 N.ar    1  ZINC001139743874   -0.4700
     24 C24       -10.2283   -2.0698   56.9689 C.ar    1  ZINC001139743874    0.0800
     25 C25       -10.1313   -1.6782   55.6189 C.ar    1  ZINC001139743874   -0.0400
     26 C26        -8.4562    1.4000   52.3906 C.3     1  ZINC001139743874    0.0000
     27 C27        -6.0576    0.6502   51.8757 C.3     1  ZINC001139743874   -0.1300
     28 C28        -6.2956    1.0224   50.4781 C.3     1  ZINC001139743874    0.1400
     29 H29        -2.0565    3.3095   47.9121 H       1  ZINC001139743874    0.0900
     30 H30        -2.6855    4.5182   49.0574 H       1  ZINC001139743874    0.0600
     31 H31        -1.0785    3.7982   49.3167 H       1  ZINC001139743874    0.0700
     32 H32        -0.8786    1.4061   50.0099 H       1  ZINC001139743874    0.0700
     33 H33        -2.3431    0.4221   50.2443 H       1  ZINC001139743874    0.0600
     34 H34        -1.8566    0.9174   48.6053 H       1  ZINC001139743874    0.0900
     35 H35        -3.3684    3.8230   51.3579 H       1  ZINC001139743874    0.0700
     36 H36        -3.2259    2.1189   51.8517 H       1  ZINC001139743874    0.0700
     37 H37        -1.7614    3.1030   51.6173 H       1  ZINC001139743874    0.0800
     38 H38        -7.2779    4.2073   50.2103 H       1  ZINC001139743874    0.0700
     39 H39        -8.1205    2.7847   50.8225 H       1  ZINC001139743874    0.0900
     40 H40        -6.3069    4.7020   52.3227 H       1  ZINC001139743874    0.0700
     41 H41        -7.9556    4.1657   52.7290 H       1  ZINC001139743874    0.0800
     42 H42        -5.3255    2.6712   53.0525 H       1  ZINC001139743874    0.0600
     43 H43        -6.6135    2.9220   54.2463 H       1  ZINC001139743874    0.0700
     44 H44        -7.4163   -0.5513   53.8259 H       1  ZINC001139743874    0.0700
     45 H45        -6.9950    0.7943   54.9744 H       1  ZINC001139743874    0.0900
     46 H46       -10.7950    0.5414   53.5932 H       1  ZINC001139743874    0.0600
     47 H47        -9.6007   -0.7393   53.2738 H       1  ZINC001139743874    0.0900
     48 H48        -9.7622    1.6198   56.1461 H       1  ZINC001139743874    0.1700
     49 H49       -10.2029   -0.7352   60.1175 H       1  ZINC001139743874    0.1500
     50 H50       -10.5045   -3.1226   60.6253 H       1  ZINC001139743874    0.1500
     51 H51       -10.6195   -4.7640   58.7958 H       1  ZINC001139743874    0.1700
     52 H52       -10.1877   -2.4079   54.8247 H       1  ZINC001139743874    0.1400
     53 H53        -8.7975    2.3747   52.0416 H       1  ZINC001139743874    0.1000
     54 H54        -8.7159    0.5882   51.7113 H       1  ZINC001139743874    0.0700
     55 H55        -5.0254    0.8865   52.1345 H       1  ZINC001139743874    0.0700
     56 H56        -6.2095   -0.4237   51.9841 H       1  ZINC001139743874    0.0800
     57 H57        -7.3039    0.7285   50.1864 H       1  ZINC001139743874    0.0800
     58 H58        -5.5677    0.5256   49.8367 H       1  ZINC001139743874    0.1000
@<TRIPOS>BOND
     1     1     2    1
     2     1    29    1
     3     1    30    1
     4     1    31    1
     5     2     3    1
     6     2     4    1
     7     2     5    1
     8     3    32    1
     9     3    33    1
    10     3    34    1
    11     4    35    1
    12     4    36    1
    13     4    37    1
    14     5     6    1
    15     6     7    2
    16     6     8   am
    17     8    28    1
    18     8     9    1
    19     9    10    1
    20     9    38    1
    21     9    39    1
    22    10    11    1
    23    10    40    1
    24    10    41    1
    25    11    12    1
    26    11    42    1
    27    11    43    1
    28    12    26    1
    29    12    13    1
    30    12    27    1
    31    13    14    1
    32    13    44    1
    33    13    45    1
    34    14    15    1
    35    14    26    1
    36    15    16    1
    37    15    46    1
    38    15    47    1
    39    16    25   ar
    40    16    17   ar
    41    17    18   ar
    42    17    48    1
    43    18    19   ar
    44    19    24   ar
    45    19    20   ar
    46    20    21   ar
    47    20    49    1
    48    21    22   ar
    49    21    50    1
    50    22    23   ar
    51    22    51    1
    52    23    24   ar
    53    24    25   ar
    54    25    52    1
    55    26    53    1
    56    26    54    1
    57    27    28    1
    58    27    55    1
    59    27    56    1
    60    28    57    1
    61    28    58    1
@<TRIPOS>SUBSTRUCTURE
     1 ZINC001139743874        1 TEMP              0 ****  ****    0 ROOT


##########                                Name:    ZINC001058079801
##########                DOCK_Rotatable_Bonds:                   7
##########                         Heavy_Atoms:                  24
##########                    Molecular_Weight:             349.457
##########                DOCK_Rotatable_Bonds:                   7
##########                       Formal_Charge:           0.0200001
##########                     HBond_Acceptors:                   8
##########                        HBond_Donors:                   0
##########                         Heavy_Atoms:                  24
##########                          Grid_Score:          -30.783863
##########                     Grid_vdw_energy:          -28.717218
##########                      Grid_es_energy:           -2.066645
##########           Internal_energy_repulsive:           12.886353

@<TRIPOS>MOLECULE
ZINC001058079801
 47 49 1 0 0
SMALL
USER_CHARGES


@<TRIPOS>ATOM
      1 C1         -8.4473   -0.5108   53.9585 C.3     1  ZINC001058079801   -0.1500
      2 C2         -7.7835   -0.0870   52.6467 C.3     1  ZINC001058079801   -0.1200
      3 C3         -7.4183    1.3972   52.7163 C.3     1  ZINC001058079801   -0.0300
      4 C4         -6.8106    1.8270   51.4059 C.2     1  ZINC001058079801    0.2900
      5 N5         -7.5047    2.4947   50.5308 N.2     1  ZINC001058079801   -0.4800
      6 S6         -6.4556    2.7706   49.2226 S.3     1  ZINC001058079801    0.1900
      7 C7         -5.1196    1.9559   49.9436 C.2     1  ZINC001058079801    0.2700
      8 N8         -3.8552    1.7779   49.4119 N.3     1  ZINC001058079801   -0.4300
      9 C9         -3.0759    0.8265   50.2145 C.3     1  ZINC001058079801    0.0700
     10 C10        -1.7420    0.5437   49.5197 C.3     1  ZINC001058079801   -0.1300
     11 C11        -0.9691    1.8554   49.3563 C.3     1  ZINC001058079801    0.1300
     12 N12         0.2830    1.5998   48.6398 N.am    1  ZINC001058079801   -0.6100
     13 C13         0.2760    1.4529   47.1823 C.3     1  ZINC001058079801    0.0700
     14 C14         1.4413    1.5000   49.3217 C.2     1  ZINC001058079801    0.5200
     15 O15         2.4776    1.2869   48.7287 O.2     1  ZINC001058079801   -0.5300
     16 C16         1.4487    1.6529   50.8209 C.3     1  ZINC001058079801   -0.0600
     17 C17         2.8379    1.3956   51.3452 C.2     1  ZINC001058079801   -0.1900
     18 C18         3.8370    2.2903   51.5342 C.2     1  ZINC001058079801   -0.0400
     19 O19         4.8797    1.5989   52.0154 O.3     1  ZINC001058079801    0.1000
     20 N20         4.6188    0.4238   52.1306 N.2     1  ZINC001058079801   -0.3600
     21 C21         3.3980    0.1653   51.7596 C.2     1  ZINC001058079801    0.0000
     22 C22        -1.8223    2.8454   48.5586 C.3     1  ZINC001058079801   -0.1200
     23 C23        -3.1539    3.0615   49.2812 C.3     1  ZINC001058079801    0.0400
     24 N24        -5.5624    1.5445   51.1130 N.2     1  ZINC001058079801   -0.5300
     25 H25        -8.7076   -1.5682   53.9089 H       1  ZINC001058079801    0.0600
     26 H26        -7.7567   -0.3449   54.7853 H       1  ZINC001058079801    0.0600
     27 H27        -9.3505    0.0787   54.1157 H       1  ZINC001058079801    0.0600
     28 H28        -6.8802   -0.6765   52.4895 H       1  ZINC001058079801    0.0700
     29 H29        -8.4742   -0.2528   51.8199 H       1  ZINC001058079801    0.0700
     30 H30        -8.3164    1.9837   52.9101 H       1  ZINC001058079801    0.1000
     31 H31        -6.6994    1.5572   53.5199 H       1  ZINC001058079801    0.0900
     32 H32        -2.8890    1.2510   51.2008 H       1  ZINC001058079801    0.0600
     33 H33        -3.6350   -0.1033   50.3195 H       1  ZINC001058079801    0.1000
     34 H34        -1.1572   -0.1504   50.1234 H       1  ZINC001058079801    0.0800
     35 H35        -1.9280    0.1064   48.5389 H       1  ZINC001058079801    0.0800
     36 H36        -0.7479    2.2726   50.3387 H       1  ZINC001058079801    0.1000
     37 H37         0.4220    2.4282   46.7180 H       1  ZINC001058079801    0.0600
     38 H38         1.0811    0.7828   46.8808 H       1  ZINC001058079801    0.0800
     39 H39        -0.6803    1.0383   46.8635 H       1  ZINC001058079801    0.0800
     40 H40         1.1427    2.6654   51.0842 H       1  ZINC001058079801    0.1100
     41 H41         0.7553    0.9373   51.2626 H       1  ZINC001058079801    0.1100
     42 H42         3.8009    3.3513   51.3362 H       1  ZINC001058079801    0.2200
     43 H43         2.9117   -0.7990   51.7614 H       1  ZINC001058079801    0.1900
     44 H44        -1.2949    3.7958   48.4756 H       1  ZINC001058079801    0.0900
     45 H45        -2.0096    2.4443   47.5626 H       1  ZINC001058079801    0.0800
     46 H46        -3.7696    3.7550   48.7083 H       1  ZINC001058079801    0.1000
     47 H47        -2.9665    3.4755   50.2719 H       1  ZINC001058079801    0.0700
@<TRIPOS>BOND
     1     1     2    1
     2     1    25    1
     3     1    26    1
     4     1    27    1
     5     2     3    1
     6     2    28    1
     7     2    29    1
     8     3     4    1
     9     3    30    1
    10     3    31    1
    11     4    24    1
    12     4     5    2
    13     5     6    1
    14     6     7    1
    15     7     8    1
    16     7    24    2
    17     8    23    1
    18     8     9    1
    19     9    10    1
    20     9    32    1
    21     9    33    1
    22    10    11    1
    23    10    34    1
    24    10    35    1
    25    11    12    1
    26    11    22    1
    27    11    36    1
    28    12    13    1
    29    12    14   am
    30    13    37    1
    31    13    38    1
    32    13    39    1
    33    14    15    2
    34    14    16    1
    35    16    17    1
    36    16    40    1
    37    16    41    1
    38    17    21    1
    39    17    18    2
    40    18    19    1
    41    18    42    1
    42    19    20    1
    43    20    21    2
    44    21    43    1
    45    22    23    1
    46    22    44    1
    47    22    45    1
    48    23    46    1
    49    23    47    1
@<TRIPOS>SUBSTRUCTURE
     1 ZINC001058079801        1 TEMP              0 ****  ****    0 ROOT


##########                                Name:    ZINC000195331548
##########                DOCK_Rotatable_Bonds:                   7
##########                         Heavy_Atoms:                  26
##########                    Molecular_Weight:             378.539
##########                DOCK_Rotatable_Bonds:                   7
##########                       Formal_Charge:          -0.0100004
##########                     HBond_Acceptors:                   7
##########                        HBond_Donors:                   2
##########                         Heavy_Atoms:                  26
##########                          Grid_Score:          -30.781080
##########                     Grid_vdw_energy:          -30.087534
##########                      Grid_es_energy:           -0.693547
##########           Internal_energy_repulsive:           28.480284

@<TRIPOS>MOLECULE
ZINC000195331548
 56 58 1 0 0
SMALL
USER_CHARGES


@<TRIPOS>ATOM
      1 C1        -10.3428   -1.5214   56.9009 C.3     1  ZINC000195331548   -0.0800
      2 C2         -9.2397   -0.4947   56.8981 C.2     1  ZINC000195331548    0.0700
      3 C3         -8.6462   -0.0680   58.0169 C.2     1  ZINC000195331548   -0.2600
      4 S4         -7.4205    1.1138   57.5637 S.3     1  ZINC000195331548    0.1100
      5 C5         -7.8337    0.9230   55.9157 C.2     1  ZINC000195331548    0.0600
      6 C6         -7.1813    1.6567   54.7723 C.3     1  ZINC000195331548   -0.0100
      7 H7         -6.1545    1.9076   55.0388 H       1  ZINC000195331548    0.1100
      8 C8         -7.9613    2.9409   54.4775 C.3     1  ZINC000195331548   -0.1200
      9 C9         -7.3279    3.6493   53.2769 C.3     1  ZINC000195331548   -0.1100
     10 C10        -7.3255    2.7020   52.0749 C.3     1  ZINC000195331548    0.0500
     11 N11        -6.5665    1.4896   52.4071 N.3     1  ZINC000195331548   -0.5200
     12 C12        -6.4255    0.6185   51.2326 C.3     1  ZINC000195331548    0.0400
     13 C13        -5.7404    1.3761   50.1247 C.2     1  ZINC000195331548    0.5100
     14 O14        -6.3939    2.0470   49.3548 O.2     1  ZINC000195331548   -0.4400
     15 N15        -4.4011    1.3080   49.9897 N.am    1  ZINC000195331548   -0.7000
     16 C16        -3.7885    1.9843   48.9979 C.2     1  ZINC000195331548    0.6900
     17 O17        -4.4439    2.6545   48.2242 O.2     1  ZINC000195331548   -0.5300
     18 N18        -2.4491    1.9174   48.8638 N.am    1  ZINC000195331548   -0.7300
     19 C19        -1.7830    2.6541   47.7867 C.3     1  ZINC000195331548    0.1700
     20 H20        -2.1857    3.6656   47.7353 H       1  ZINC000195331548    0.0900
     21 C21        -2.0252    1.9403   46.4553 C.3     1  ZINC000195331548   -0.1300
     22 C22        -1.4600    0.5204   46.5275 C.3     1  ZINC000195331548   -0.1200
     23 C23         0.0431    0.5834   46.8064 C.3     1  ZINC000195331548   -0.1200
     24 C24         0.2853    1.2971   48.1378 C.3     1  ZINC000195331548   -0.1100
     25 C25        -0.2800    2.7170   48.0656 C.3     1  ZINC000195331548   -0.1000
     26 H26         0.2156    3.2650   47.2642 H       1  ZINC000195331548    0.0900
     27 C27        -0.0379    3.4307   49.3972 C.3     1  ZINC000195331548   -0.1500
     28 C28        -7.1832    0.7672   53.5270 C.3     1  ZINC000195331548    0.0600
     29 N29        -8.7811    0.0559   55.7921 N.2     1  ZINC000195331548   -0.4700
     30 H30        -9.9111   -2.5188   56.8178 H       1  ZINC000195331548    0.0800
     31 H31       -10.9069   -1.4461   57.8305 H       1  ZINC000195331548    0.0800
     32 H32       -11.0083   -1.3420   56.0565 H       1  ZINC000195331548    0.0800
     33 H33        -8.8749   -0.3932   59.0211 H       1  ZINC000195331548    0.1800
     34 H34        -8.9979    2.6932   54.2490 H       1  ZINC000195331548    0.0600
     35 H35        -7.9267    3.5961   55.3480 H       1  ZINC000195331548    0.0700
     36 H36        -7.9044    4.5422   53.0354 H       1  ZINC000195331548    0.0800
     37 H37        -6.3034    3.9316   53.5198 H       1  ZINC000195331548    0.0800
     38 H38        -6.8621    3.1983   51.2222 H       1  ZINC000195331548    0.0800
     39 H39        -8.3510    2.4312   51.8240 H       1  ZINC000195331548    0.0400
     40 H40        -7.4120    0.2979   50.8976 H       1  ZINC000195331548    0.1200
     41 H41        -5.8300   -0.2552   51.4975 H       1  ZINC000195331548    0.0700
     42 H42        -3.8782    0.7722   50.6064 H       1  ZINC000195331548    0.4100
     43 H43        -1.9261    1.3816   49.4805 H       1  ZINC000195331548    0.4000
     44 H44        -1.5296    2.4884   45.6539 H       1  ZINC000195331548    0.0700
     45 H45        -3.0960    1.8955   46.2565 H       1  ZINC000195331548    0.0700
     46 H46        -1.6325    0.0120   45.5788 H       1  ZINC000195331548    0.0600
     47 H47        -1.9555   -0.0276   47.3287 H       1  ZINC000195331548    0.0600
     48 H48         0.4458   -0.4281   46.8578 H       1  ZINC000195331548    0.0600
     49 H49         0.5386    1.1315   46.0050 H       1  ZINC000195331548    0.0600
     50 H50        -0.2104    0.7491   48.9392 H       1  ZINC000195331548    0.0600
     51 H51         1.3561    1.3421   48.3366 H       1  ZINC000195331548    0.0700
     52 H52        -0.5334    2.8827   50.1985 H       1  ZINC000195331548    0.0500
     53 H53         1.0330    3.4756   49.5958 H       1  ZINC000195331548    0.0600
     54 H54        -0.4406    4.4423   49.3457 H       1  ZINC000195331548    0.0600
     55 H55        -8.2094    0.5054   53.2692 H       1  ZINC000195331548    0.0400
     56 H56        -6.6164   -0.1417   53.7290 H       1  ZINC000195331548    0.0900
@<TRIPOS>BOND
     1     1     2    1
     2     1    30    1
     3     1    31    1
     4     1    32    1
     5     2    29    1
     6     2     3    2
     7     3     4    1
     8     3    33    1
     9     4     5    1
    10     5     6    1
    11     5    29    2
    12     6     7    1
    13     6    28    1
    14     6     8    1
    15     8     9    1
    16     8    34    1
    17     8    35    1
    18     9    10    1
    19     9    36    1
    20     9    37    1
    21    10    11    1
    22    10    38    1
    23    10    39    1
    24    11    12    1
    25    11    28    1
    26    12    13    1
    27    12    40    1
    28    12    41    1
    29    13    14    2
    30    13    15   am
    31    15    16   am
    32    15    42    1
    33    16    17    2
    34    16    18   am
    35    18    19    1
    36    18    43    1
    37    19    20    1
    38    19    25    1
    39    19    21    1
    40    21    22    1
    41    21    44    1
    42    21    45    1
    43    22    23    1
    44    22    46    1
    45    22    47    1
    46    23    24    1
    47    23    48    1
    48    23    49    1
    49    24    25    1
    50    24    50    1
    51    24    51    1
    52    25    26    1
    53    25    27    1
    54    27    52    1
    55    27    53    1
    56    27    54    1
    57    28    55    1
    58    28    56    1
@<TRIPOS>SUBSTRUCTURE
     1 ZINC000195331548        1 TEMP              0 ****  ****    0 ROOT


##########                                Name:    ZINC000498646479
##########                DOCK_Rotatable_Bonds:                   7
##########                         Heavy_Atoms:                  29
##########                    Molecular_Weight:              407.58
##########                DOCK_Rotatable_Bonds:                   7
##########                       Formal_Charge:          -0.0199997
##########                     HBond_Acceptors:                   5
##########                        HBond_Donors:                   0
##########                         Heavy_Atoms:                  29
##########                          Grid_Score:          -30.771900
##########                     Grid_vdw_energy:          -30.364979
##########                      Grid_es_energy:           -0.406921
##########           Internal_energy_repulsive:           25.418919

@<TRIPOS>MOLECULE
ZINC000498646479
 58 61 1 0 0
SMALL
USER_CHARGES


@<TRIPOS>ATOM
      1 C1         -5.3851    1.8783   49.5522 C.3     1  ZINC000498646479   -0.1500
      2 C2         -5.3532    0.7902   50.6273 C.3     1  ZINC000498646479   -0.0600
      3 C3         -6.1451    1.2452   51.8261 C.2     1  ZINC000498646479   -0.1700
      4 C4         -7.4484    1.0312   52.0130 C.2     1  ZINC000498646479   -0.1400
      5 C5         -7.9601    1.5431   53.1929 C.2     1  ZINC000498646479   -0.1300
      6 C6         -7.0724    2.1726   53.9642 C.2     1  ZINC000498646479   -0.1900
      7 C7         -7.3768    2.8138   55.2935 C.3     1  ZINC000498646479    0.1300
      8 N8         -8.4506    2.0675   55.9629 N.3     1  ZINC000498646479   -0.5300
      9 C9         -8.9844    2.8227   57.1042 C.3     1  ZINC000498646479    0.0400
     10 C10       -10.2148    2.0988   57.6611 C.3     1  ZINC000498646479    0.1200
     11 N11        -9.8440    0.7062   57.9556 N.am    1  ZINC000498646479   -0.6100
     12 C12       -10.1080    0.1598   59.1589 C.2     1  ZINC000498646479    0.5200
     13 O13       -10.6583    0.8179   60.0162 O.2     1  ZINC000498646479   -0.5400
     14 C14        -9.7193   -1.2690   59.4393 C.3     1  ZINC000498646479   -0.1000
     15 H15        -9.8419   -1.8633   58.5339 H       1  ZINC000498646479    0.0900
     16 C16        -8.2579   -1.3210   59.8894 C.3     1  ZINC000498646479   -0.1500
     17 C17       -10.6138   -1.8333   60.5449 C.3     1  ZINC000498646479   -0.0600
     18 C18       -11.9872   -2.1079   59.9886 C.ar    1  ZINC000498646479   -0.1200
     19 C19       -12.2068   -3.1958   59.1245 C.ar    1  ZINC000498646479   -0.0200
     20 C20       -11.1767   -4.0672   58.7422 C.ar    1  ZINC000498646479   -0.1200
     21 C21       -11.4524   -5.1035   57.9024 C.ar    1  ZINC000498646479   -0.1000
     22 C22       -12.7423   -5.3109   57.4166 C.ar    1  ZINC000498646479   -0.1200
     23 C23       -13.7667   -4.4849   57.7666 C.ar    1  ZINC000498646479   -0.0900
     24 C24       -13.5209   -3.4062   58.6308 C.ar    1  ZINC000498646479   -0.1100
     25 C25       -14.5368   -2.5218   59.0270 C.ar    1  ZINC000498646479    0.1400
     26 N26       -14.2588   -1.5274   59.8375 N.ar    1  ZINC000498646479   -0.4800
     27 C27       -13.0419   -1.3111   60.3170 C.ar    1  ZINC000498646479    0.0800
     28 C28        -9.1777   -0.0742   56.9019 C.3     1  ZINC000498646479    0.1100
     29 C29        -7.9882    0.7355   56.3748 C.3     1  ZINC000498646479    0.0400
     30 S30        -5.4905    2.1326   53.1963 S.3     1  ZINC000498646479    0.1300
     31 H31        -4.8124    1.5494   48.6851 H       1  ZINC000498646479    0.0600
     32 H32        -6.4172    2.0662   49.2559 H       1  ZINC000498646479    0.0600
     33 H33        -4.9486    2.7947   49.9495 H       1  ZINC000498646479    0.0600
     34 H34        -5.7897   -0.1261   50.2300 H       1  ZINC000498646479    0.0800
     35 H35        -4.3212    0.6024   50.9235 H       1  ZINC000498646479    0.0700
     36 H36        -8.0582    0.4994   51.2977 H       1  ZINC000498646479    0.1400
     37 H37        -8.9995    1.4408   53.4679 H       1  ZINC000498646479    0.1300
     38 H38        -6.4825    2.8009   55.9165 H       1  ZINC000498646479    0.0900
     39 H39        -7.6946    3.8444   55.1355 H       1  ZINC000498646479    0.0500
     40 H40        -8.2228    2.8954   57.8805 H       1  ZINC000498646479    0.0400
     41 H41        -9.2680    3.8233   56.7775 H       1  ZINC000498646479    0.1000
     42 H42       -10.5464    2.5906   58.5755 H       1  ZINC000498646479    0.1000
     43 H43       -11.0155    2.1158   56.9217 H       1  ZINC000498646479    0.0800
     44 H44        -7.9520   -2.3601   60.0113 H       1  ZINC000498646479    0.0700
     45 H45        -7.6291   -0.8428   59.1383 H       1  ZINC000498646479    0.0600
     46 H46        -8.1513   -0.7971   60.8393 H       1  ZINC000498646479    0.0700
     47 H47       -10.1830   -2.7604   60.9231 H       1  ZINC000498646479    0.0900
     48 H48       -10.6886   -1.1096   61.3565 H       1  ZINC000498646479    0.0800
     49 H49       -10.1725   -3.9176   59.1107 H       1  ZINC000498646479    0.1400
     50 H50       -10.6592   -5.7748   57.6080 H       1  ZINC000498646479    0.1300
     51 H51       -12.9323   -6.1402   56.7514 H       1  ZINC000498646479    0.1300
     52 H52       -14.7608   -4.6583   57.3821 H       1  ZINC000498646479    0.1300
     53 H53       -15.5451   -2.6593   58.6652 H       1  ZINC000498646479    0.1600
     54 H54       -12.8805   -0.4742   60.9804 H       1  ZINC000498646479    0.1500
     55 H55        -8.8236   -1.0189   57.3144 H       1  ZINC000498646479    0.0900
     56 H56        -9.8788   -0.2660   56.0896 H       1  ZINC000498646479    0.0800
     57 H57        -7.5493    0.2221   55.5193 H       1  ZINC000498646479    0.0900
     58 H58        -7.2404    0.8371   57.1614 H       1  ZINC000498646479    0.0400
@<TRIPOS>BOND
     1     1     2    1
     2     1    31    1
     3     1    32    1
     4     1    33    1
     5     2     3    1
     6     2    34    1
     7     2    35    1
     8     3    30    1
     9     3     4    2
    10     4     5    1
    11     4    36    1
    12     5     6    2
    13     5    37    1
    14     6     7    1
    15     6    30    1
    16     7     8    1
    17     7    38    1
    18     7    39    1
    19     8    29    1
    20     8     9    1
    21     9    10    1
    22     9    40    1
    23     9    41    1
    24    10    11    1
    25    10    42    1
    26    10    43    1
    27    11    12   am
    28    11    28    1
    29    12    13    2
    30    12    14    1
    31    14    15    1
    32    14    16    1
    33    14    17    1
    34    16    44    1
    35    16    45    1
    36    16    46    1
    37    17    18    1
    38    17    47    1
    39    17    48    1
    40    18    27   ar
    41    18    19   ar
    42    19    24   ar
    43    19    20   ar
    44    20    21   ar
    45    20    49    1
    46    21    22   ar
    47    21    50    1
    48    22    23   ar
    49    22    51    1
    50    23    24   ar
    51    23    52    1
    52    24    25   ar
    53    25    26   ar
    54    25    53    1
    55    26    27   ar
    56    27    54    1
    57    28    29    1
    58    28    55    1
    59    28    56    1
    60    29    57    1
    61    29    58    1
@<TRIPOS>SUBSTRUCTURE
     1 ZINC000498646479        1 TEMP              0 ****  ****    0 ROOT


##########                                Name:    ZINC000507831344
##########                DOCK_Rotatable_Bonds:                   6
##########                         Heavy_Atoms:                  31
##########                    Molecular_Weight:              422.53
##########                DOCK_Rotatable_Bonds:                   6
##########                       Formal_Charge:          -0.0200002
##########                     HBond_Acceptors:                   8
##########                        HBond_Donors:                   2
##########                         Heavy_Atoms:                  31
##########                          Grid_Score:          -30.747698
##########                     Grid_vdw_energy:          -30.621126
##########                      Grid_es_energy:           -0.126572
##########           Internal_energy_repulsive:           25.567179

@<TRIPOS>MOLECULE
ZINC000507831344
 61 64 1 0 0
SMALL
USER_CHARGES


@<TRIPOS>ATOM
      1 C1         -6.7969    2.0499   55.4930 C.3     1  ZINC000507831344   -0.1000
      2 C2         -7.7020    0.9354   55.0348 C.ar    1  ZINC000507831344   -0.0800
      3 C3         -8.4250    0.1982   55.9542 C.ar    1  ZINC000507831344   -0.0800
      4 C4         -9.2499   -0.8231   55.4852 C.ar    1  ZINC000507831344    0.0900
      5 N5        -10.0016   -1.5959   56.3812 N.am    1  ZINC000507831344   -0.6700
      6 C6        -11.3392   -1.6810   56.2401 C.2     1  ZINC000507831344    0.5100
      7 O7        -11.8927   -1.0888   55.3377 O.2     1  ZINC000507831344   -0.5100
      8 C8        -12.1473   -2.5118   57.2034 C.3     1  ZINC000507831344   -0.1400
      9 C9        -13.5331   -1.8872   57.3774 C.3     1  ZINC000507831344   -0.0500
     10 C10       -13.8454   -1.7588   58.8461 C.2     1  ZINC000507831344   -0.2200
     11 C11       -13.4752   -0.6448   59.5312 C.2     1  ZINC000507831344    0.2100
     12 C12       -12.7486    0.4745   58.8312 C.3     1  ZINC000507831344   -0.1400
     13 N13       -13.7687   -0.5524   60.8556 N.pl3   1  ZINC000507831344   -0.3000
     14 N14       -13.5219    0.4466   61.8049 N.am    1  ZINC000507831344   -0.5100
     15 C15       -14.0219    0.0431   62.9886 C.2     1  ZINC000507831344    0.5500
     16 O16       -13.9805    0.6726   64.0333 O.2     1  ZINC000507831344   -0.5400
     17 C17       -14.5949   -1.2160   62.8170 C.2     1  ZINC000507831344   -0.3500
     18 C18       -14.4312   -1.5782   61.4818 C.2     1  ZINC000507831344    0.3500
     19 N19       -14.7920   -2.6708   60.7988 N.2     1  ZINC000507831344   -0.4800
     20 C20       -14.5243   -2.7829   59.5156 C.2     1  ZINC000507831344    0.2500
     21 C21       -14.9408   -4.0227   58.7668 C.3     1  ZINC000507831344   -0.1200
     22 C22        -9.3183   -1.0647   54.1218 C.ar    1  ZINC000507831344    0.0800
     23 N23        -8.6141   -0.3413   53.2721 N.ar    1  ZINC000507831344   -0.4900
     24 C24        -7.8249    0.6393   53.6811 C.ar    1  ZINC000507831344    0.2800
     25 N25        -7.1014    1.3758   52.7471 N.3     1  ZINC000507831344   -0.4800
     26 C26        -5.9567    0.6064   52.2429 C.3     1  ZINC000507831344    0.0600
     27 C27        -5.1048    1.4943   51.3328 C.3     1  ZINC000507831344   -0.1200
     28 C28        -5.9624    1.9926   50.1662 C.3     1  ZINC000507831344   -0.1200
     29 C29        -7.1734    2.7487   50.7197 C.3     1  ZINC000507831344   -0.1100
     30 C30        -7.9652    1.8246   51.6476 C.3     1  ZINC000507831344    0.0900
     31 H31        -8.3163    0.9594   51.0852 H       1  ZINC000507831344    0.0600
     32 C32        -9.1652    2.5824   52.2191 C.3     1  ZINC000507831344   -0.1400
     33 H33        -7.3338    2.9973   55.4438 H       1  ZINC000507831344    0.0700
     34 H34        -6.4821    1.8635   56.5197 H       1  ZINC000507831344    0.0600
     35 H35        -5.9204    2.0951   54.8466 H       1  ZINC000507831344    0.0800
     36 H36        -8.3520    0.4083   57.0110 H       1  ZINC000507831344    0.1500
     37 H37        -9.5590   -2.0694   57.1030 H       1  ZINC000507831344    0.4100
     38 H38       -12.2514   -3.5236   56.8117 H       1  ZINC000507831344    0.1000
     39 H39       -11.6404   -2.5458   58.1677 H       1  ZINC000507831344    0.1000
     40 H40       -13.5474   -0.9000   56.9154 H       1  ZINC000507831344    0.0900
     41 H41       -14.2802   -2.5221   56.9011 H       1  ZINC000507831344    0.1000
     42 H42       -13.4731    1.1847   58.4327 H       1  ZINC000507831344    0.1000
     43 H43       -12.0942    0.9821   59.5400 H       1  ZINC000507831344    0.0800
     44 H44       -12.1528    0.0664   58.0147 H       1  ZINC000507831344    0.1100
     45 H45       -13.0672    1.2870   61.6384 H       1  ZINC000507831344    0.4400
     46 H46       -15.0786   -1.8052   63.5821 H       1  ZINC000507831344    0.1700
     47 H47       -15.4458   -4.7067   59.4491 H       1  ZINC000507831344    0.0900
     48 H48       -15.6193   -3.7486   57.9590 H       1  ZINC000507831344    0.1000
     49 H49       -14.0586   -4.5095   58.3510 H       1  ZINC000507831344    0.0900
     50 H50        -9.9549   -1.8543   53.7509 H       1  ZINC000507831344    0.1600
     51 H51        -5.3529    0.2616   53.0822 H       1  ZINC000507831344    0.0700
     52 H52        -6.3172   -0.2530   51.6778 H       1  ZINC000507831344    0.0500
     53 H53        -4.7326    2.3468   51.9009 H       1  ZINC000507831344    0.0700
     54 H54        -4.2639    0.9185   50.9464 H       1  ZINC000507831344    0.0700
     55 H55        -5.3717    2.6601   49.5390 H       1  ZINC000507831344    0.0700
     56 H56        -6.3028    1.1424   49.5752 H       1  ZINC000507831344    0.0600
     57 H57        -6.8337    3.6210   51.2781 H       1  ZINC000507831344    0.0700
     58 H58        -7.8103    3.0693   49.8952 H       1  ZINC000507831344    0.0700
     59 H59        -9.8509    2.8391   51.4116 H       1  ZINC000507831344    0.0600
     60 H60        -9.6792    1.9536   52.9461 H       1  ZINC000507831344    0.0500
     61 H61        -8.8204    3.4942   52.7068 H       1  ZINC000507831344    0.0600
@<TRIPOS>BOND
     1     1     2    1
     2     1    33    1
     3     1    34    1
     4     1    35    1
     5     2    24   ar
     6     2     3   ar
     7     3     4   ar
     8     3    36    1
     9     4     5    1
    10     4    22   ar
    11     5     6   am
    12     5    37    1
    13     6     7    2
    14     6     8    1
    15     8     9    1
    16     8    38    1
    17     8    39    1
    18     9    10    1
    19     9    40    1
    20     9    41    1
    21    10    20    1
    22    10    11    2
    23    11    12    1
    24    11    13    1
    25    12    42    1
    26    12    43    1
    27    12    44    1
    28    13    18    1
    29    13    14    1
    30    14    15   am
    31    14    45    1
    32    15    16    2
    33    15    17    1
    34    17    18    2
    35    17    46    1
    36    18    19    1
    37    19    20    2
    38    20    21    1
    39    21    47    1
    40    21    48    1
    41    21    49    1
    42    22    23   ar
    43    22    50    1
    44    23    24   ar
    45    24    25    1
    46    25    30    1
    47    25    26    1
    48    26    27    1
    49    26    51    1
    50    26    52    1
    51    27    28    1
    52    27    53    1
    53    27    54    1
    54    28    29    1
    55    28    55    1
    56    28    56    1
    57    29    30    1
    58    29    57    1
    59    29    58    1
    60    30    31    1
    61    30    32    1
    62    32    59    1
    63    32    60    1
    64    32    61    1
@<TRIPOS>SUBSTRUCTURE
     1 ZINC000507831344        1 TEMP              0 ****  ****    0 ROOT


##########                                Name:    ZINC000952280524
##########                DOCK_Rotatable_Bonds:                   9
##########                         Heavy_Atoms:                  25
##########                    Molecular_Weight:             348.486
##########                DOCK_Rotatable_Bonds:                   9
##########                       Formal_Charge:          -0.0100004
##########                     HBond_Acceptors:                   5
##########                        HBond_Donors:                   1
##########                         Heavy_Atoms:                  25
##########                          Grid_Score:          -30.728477
##########                     Grid_vdw_energy:          -28.417482
##########                      Grid_es_energy:           -2.310995
##########           Internal_energy_repulsive:           19.746389

@<TRIPOS>MOLECULE
ZINC000952280524
 57 59 1 0 0
SMALL
USER_CHARGES


@<TRIPOS>ATOM
      1 C1         -9.9546   -2.3271   58.4451 C.3     1  ZINC000952280524   -0.1800
      2 C2         -9.6177   -1.6687   59.7844 C.3     1  ZINC000952280524    0.1400
      3 C3        -10.7011   -2.0122   60.8086 C.3     1  ZINC000952280524   -0.1900
      4 O4         -8.3545   -2.1503   60.2476 O.3     1  ZINC000952280524   -0.5500
      5 C5         -9.5496   -0.1509   59.6037 C.3     1  ZINC000952280524   -0.1200
      6 C6         -8.4217    0.1932   58.6653 C.2     1  ZINC000952280524    0.5300
      7 O7         -7.2716    0.0286   59.0134 O.2     1  ZINC000952280524   -0.5100
      8 N8         -8.6910    0.6837   57.4392 N.am    1  ZINC000952280524   -0.6300
      9 C9        -10.0326    0.9318   56.8912 C.3     1  ZINC000952280524    0.1000
     10 C10        -9.8493    1.4664   55.4552 C.3     1  ZINC000952280524   -0.1300
     11 C11        -8.4351    0.9558   55.0722 C.3     1  ZINC000952280524   -0.1000
     12 H12        -8.4731   -0.0773   54.7265 H       1  ZINC000952280524    0.0900
     13 C13        -7.7922    1.8602   54.0188 C.3     1  ZINC000952280524   -0.0700
     14 C14        -6.4194    1.3022   53.6370 C.3     1  ZINC000952280524   -0.1300
     15 C15        -5.7640    2.2288   52.6080 C.3     1  ZINC000952280524    0.1100
     16 N16        -6.6823    2.4005   51.4739 N.am    1  ZINC000952280524   -0.6100
     17 C17        -6.2716    2.1530   50.2143 C.2     1  ZINC000952280524    0.5500
     18 O18        -7.0411    2.2989   49.2840 O.2     1  ZINC000952280524   -0.5500
     19 C19        -4.8923    1.7065   49.9649 C.2     1  ZINC000952280524   -0.2200
     20 C20        -3.9855    2.5687   49.5142 C.2     1  ZINC000952280524   -0.0300
     21 C21        -2.5720    2.1117   49.2604 C.3     1  ZINC000952280524   -0.1500
     22 C22        -1.4703    2.6983   50.1452 C.3     1  ZINC000952280524   -0.1700
     23 C23        -1.9072    1.2439   50.3309 C.3     1  ZINC000952280524   -0.1600
     24 C24        -8.0569    2.8465   51.7391 C.3     1  ZINC000952280524    0.1000
     25 C25        -8.6864    1.9129   52.7779 C.3     1  ZINC000952280524   -0.1300
     26 C26        -7.6891    1.0665   56.4278 C.3     1  ZINC000952280524    0.1100
     27 H27       -10.9555   -2.0274   58.1346 H       1  ZINC000952280524    0.0700
     28 H28        -9.2313   -2.0119   57.6931 H       1  ZINC000952280524    0.0600
     29 H29        -9.9173   -3.4110   58.5536 H       1  ZINC000952280524    0.0600
     30 H30       -10.7496   -3.0935   60.9374 H       1  ZINC000952280524    0.0600
     31 H31       -10.4611   -1.5431   61.7627 H       1  ZINC000952280524    0.0800
     32 H32       -11.6646   -1.6448   60.4553 H       1  ZINC000952280524    0.0600
     33 H33        -8.0749   -1.7715   61.0922 H       1  ZINC000952280524    0.3700
     34 H34       -10.4908    0.2080   59.1874 H       1  ZINC000952280524    0.1000
     35 H35        -9.3755    0.3226   60.5699 H       1  ZINC000952280524    0.1000
     36 H36       -10.6023    0.0028   56.8711 H       1  ZINC000952280524    0.0700
     37 H37       -10.5502    1.6734   57.4997 H       1  ZINC000952280524    0.0700
     38 H38       -10.6039    1.0483   54.7889 H       1  ZINC000952280524    0.0800
     39 H39        -9.8827    2.5558   55.4421 H       1  ZINC000952280524    0.0800
     40 H40        -7.6755    2.8649   54.4252 H       1  ZINC000952280524    0.0800
     41 H41        -5.7908    1.2430   54.5256 H       1  ZINC000952280524    0.0800
     42 H42        -6.5376    0.3073   53.2076 H       1  ZINC000952280524    0.0700
     43 H43        -5.5625    3.1977   53.0648 H       1  ZINC000952280524    0.0700
     44 H44        -4.8312    1.7858   52.2591 H       1  ZINC000952280524    0.0900
     45 H45        -4.6161    0.6786   50.1476 H       1  ZINC000952280524    0.1300
     46 H46        -4.2620    3.5963   49.3302 H       1  ZINC000952280524    0.1300
     47 H47        -2.3248    1.9041   48.2193 H       1  ZINC000952280524    0.1200
     48 H48        -0.4980    2.8770   49.6862 H       1  ZINC000952280524    0.1000
     49 H49        -1.7678    3.4149   50.9108 H       1  ZINC000952280524    0.1000
     50 H50        -2.4921    1.0035   51.2187 H       1  ZINC000952280524    0.1000
     51 H51        -1.2223    0.4657   49.9940 H       1  ZINC000952280524    0.1000
     52 H52        -8.0423    3.8657   52.1251 H       1  ZINC000952280524    0.0700
     53 H53        -8.6369    2.8110   50.8169 H       1  ZINC000952280524    0.0900
     54 H54        -8.7833    0.9124   52.3565 H       1  ZINC000952280524    0.0700
     55 H55        -9.6715    2.2885   53.0549 H       1  ZINC000952280524    0.0800
     56 H56        -7.3489    2.0891   56.5911 H       1  ZINC000952280524    0.0700
     57 H57        -6.8457    0.3766   56.4541 H       1  ZINC000952280524    0.0800
@<TRIPOS>BOND
     1     1     2    1
     2     1    27    1
     3     1    28    1
     4     1    29    1
     5     2     3    1
     6     2     4    1
     7     2     5    1
     8     3    30    1
     9     3    31    1
    10     3    32    1
    11     4    33    1
    12     5     6    1
    13     5    34    1
    14     5    35    1
    15     6     7    2
    16     6     8   am
    17     8    26    1
    18     8     9    1
    19     9    10    1
    20     9    36    1
    21     9    37    1
    22    10    11    1
    23    10    38    1
    24    10    39    1
    25    11    12    1
    26    11    13    1
    27    11    26    1
    28    13    25    1
    29    13    14    1
    30    13    40    1
    31    14    15    1
    32    14    41    1
    33    14    42    1
    34    15    16    1
    35    15    43    1
    36    15    44    1
    37    16    17   am
    38    16    24    1
    39    17    18    2
    40    17    19    1
    41    19    20    2
    42    19    45    1
    43    20    21    1
    44    20    46    1
    45    21    23    1
    46    21    22    1
    47    21    47    1
    48    22    23    1
    49    22    48    1
    50    22    49    1
    51    23    50    1
    52    23    51    1
    53    24    25    1
    54    24    52    1
    55    24    53    1
    56    25    54    1
    57    25    55    1
    58    26    56    1
    59    26    57    1
@<TRIPOS>SUBSTRUCTURE
     1 ZINC000952280524        1 TEMP              0 ****  ****    0 ROOT


##########                                Name:    ZINC000338927927
##########                DOCK_Rotatable_Bonds:                   9
##########                         Heavy_Atoms:                  23
##########                    Molecular_Weight:             336.286
##########                DOCK_Rotatable_Bonds:                   9
##########                       Formal_Charge:         -0.00999999
##########                     HBond_Acceptors:                   9
##########                        HBond_Donors:                   2
##########                         Heavy_Atoms:                  23
##########                          Grid_Score:          -30.717430
##########                     Grid_vdw_energy:          -29.128428
##########                      Grid_es_energy:           -1.589003
##########           Internal_energy_repulsive:            8.420148

@<TRIPOS>MOLECULE
ZINC000338927927
 39 39 1 0 0
SMALL
USER_CHARGES


@<TRIPOS>ATOM
      1 C1         -7.6379    3.6086   50.0945 C.3     1  <0>        -0.1600
      2 C2         -6.2166    3.3469   49.5923 C.3     1  <0>        -0.1100
      3 C3         -5.4593    2.5043   50.6206 C.3     1  <0>        -0.1000
      4 H4         -5.5120    2.9878   51.5961 H       1  <0>         0.1400
      5 C5         -4.0177    2.3756   50.2009 C.2     1  <0>         0.5200
      6 O6         -3.2098    1.8722   50.9526 O.2     1  <0>        -0.4700
      7 N7         -3.6260    2.8198   48.9902 N.am    1  <0>        -0.6700
      8 C8         -2.2875    2.7003   48.6005 C.ar    1  <0>         0.2200
      9 C9         -1.3850    3.7137   48.8952 C.ar    1  <0>        -0.2300
     10 C10        -0.0607    3.5962   48.5099 C.ar    1  <0>         0.1700
     11 F11         0.8156    4.5833   48.7976 F       1  <0>        -0.1300
     12 C12         0.3668    2.4689   47.8312 C.ar    1  <0>        -0.2500
     13 C13        -0.5329    1.4526   47.5345 C.ar    1  <0>         0.2600
     14 N14        -0.1009    0.3149   46.8488 N.pl3   1  <0>        -0.7400
     15 C15         0.1236    0.3726   45.4023 C.3     1  <0>         0.0800
     16 C16        -1.1464   -0.0668   44.6712 C.3     1  <0>         0.4500
     17 F17        -2.1243    0.9257   44.7976 F       1  <0>        -0.1800
     18 F18        -0.8590   -0.2684   43.3169 F       1  <0>        -0.1700
     19 F19        -1.6176   -1.2595   45.2305 F       1  <0>        -0.1800
     20 C20        -1.8599    1.5663   47.9244 C.ar    1  <0>        -0.2000
     21 C21        -6.0823    1.1346   50.7045 C.2     1  <0>         0.4600
     22 O22        -6.5517    0.6228   49.7158 O.2     1  <0>        -0.4600
     23 O23        -6.1157    0.4833   51.8777 O.3     1  <0>        -0.3500
     24 C24        -6.7530   -0.8212   51.8895 C.3     1  <0>         0.0300
     25 H25        -7.5953    4.1444   51.0427 H       1  <0>         0.0600
     26 H26        -8.1774    4.2088   49.3618 H       1  <0>         0.0600
     27 H27        -8.1536    2.6589   50.2367 H       1  <0>         0.0800
     28 H28        -6.2592    2.8111   48.6440 H       1  <0>         0.0800
     29 H29        -5.7009    4.2966   49.4501 H       1  <0>         0.0800
     30 H30        -4.2721    3.2223   48.3890 H       1  <0>         0.4200
     31 H31        -1.7167    4.5944   49.4248 H       1  <0>         0.1400
     32 H32         1.4006    2.3791   47.5315 H       1  <0>         0.1400
     33 H33         0.0503   -0.5133   47.3304 H       1  <0>         0.4100
     34 H34         0.3741    1.3935   45.1139 H       1  <0>         0.1100
     35 H35         0.9450   -0.2923   45.1354 H       1  <0>         0.1100
     36 H36        -2.5606    0.7773   47.6946 H       1  <0>         0.1500
     37 H37        -6.7115   -1.2369   52.8963 H       1  <0>         0.1000
     38 H38        -7.7935   -0.7201   51.5809 H       1  <0>         0.0600
     39 H39        -6.2326   -1.4862   51.2002 H       1  <0>         0.0600
@<TRIPOS>BOND
     1     1     2    1
     2     1    25    1
     3     1    26    1
     4     1    27    1
     5     2     3    1
     6     2    28    1
     7     2    29    1
     8     3     4    1
     9     3     5    1
    10     3    21    1
    11     5     6    2
    12     5     7   am
    13     7     8    1
    14     7    30    1
    15     8    20   ar
    16     8     9   ar
    17     9    10   ar
    18     9    31    1
    19    10    11    1
    20    10    12   ar
    21    12    13   ar
    22    12    32    1
    23    13    14    1
    24    13    20   ar
    25    14    15    1
    26    14    33    1
    27    15    16    1
    28    15    34    1
    29    15    35    1
    30    16    17    1
    31    16    18    1
    32    16    19    1
    33    20    36    1
    34    21    22    2
    35    21    23    1
    36    23    24    1
    37    24    37    1
    38    24    38    1
    39    24    39    1
@<TRIPOS>SUBSTRUCTURE
     1 <0>         1 TEMP              0 ****  ****    0 ROOT


##########                                Name:    ZINC000603906271
##########                DOCK_Rotatable_Bonds:                   8
##########                         Heavy_Atoms:                  29
##########                    Molecular_Weight:             391.473
##########                DOCK_Rotatable_Bonds:                   8
##########                       Formal_Charge:           0.0499998
##########                     HBond_Acceptors:                   7
##########                        HBond_Donors:                   3
##########                         Heavy_Atoms:                  29
##########                          Grid_Score:          -30.711792
##########                     Grid_vdw_energy:          -28.430130
##########                      Grid_es_energy:           -2.281662
##########           Internal_energy_repulsive:           19.768845

@<TRIPOS>MOLECULE
ZINC000603906271
 54 56 1 0 0
SMALL
USER_CHARGES


@<TRIPOS>ATOM
      1 C1         -7.2067    4.1831   56.9135 C.3     1  ZINC000603906271   -0.1600
      2 C2         -6.6725    2.9232   56.2295 C.3     1  ZINC000603906271    0.1300
      3 H3         -5.7411    2.6178   56.7065 H       1  ZINC000603906271    0.1200
      4 N4         -7.6588    1.8465   56.3501 N.am    1  ZINC000603906271   -0.7100
      5 C5         -7.8340    1.2224   57.5317 C.2     1  ZINC000603906271    0.5700
      6 O6         -7.1727    1.5517   58.4969 O.2     1  ZINC000603906271   -0.5300
      7 C7         -8.8305    0.1371   57.6538 C.ar    1  ZINC000603906271   -0.1400
      8 C8         -9.8147   -0.0238   56.6773 C.ar    1  ZINC000603906271   -0.0800
      9 C9        -10.7414   -1.0388   56.7970 C.ar    1  ZINC000603906271   -0.1200
     10 C10       -10.6969   -1.8958   57.8824 C.ar    1  ZINC000603906271   -0.0400
     11 C11       -11.7127   -3.0020   58.0069 C.3     1  ZINC000603906271   -0.0400
     12 C12       -12.7619   -2.8575   56.9026 C.3     1  ZINC000603906271   -0.1400
     13 C13       -11.0122   -4.3553   57.8709 C.3     1  ZINC000603906271   -0.1500
     14 C14       -12.3955   -2.9161   59.3734 C.3     1  ZINC000603906271   -0.1400
     15 C15        -9.7236   -1.7420   58.8537 C.ar    1  ZINC000603906271   -0.1300
     16 C16        -8.7878   -0.7344   58.7431 C.ar    1  ZINC000603906271   -0.0500
     17 C17        -6.4193    3.2117   54.7722 C.2     1  ZINC000603906271    0.5100
     18 O18        -6.0141    4.3030   54.4315 O.2     1  ZINC000603906271   -0.5100
     19 N19        -6.6431    2.2572   53.8474 N.am    1  ZINC000603906271   -0.6700
     20 C20        -6.4080    2.5252   52.4942 C.ar    1  ZINC000603906271    0.1300
     21 C21        -7.3229    3.2747   51.7652 C.ar    1  ZINC000603906271   -0.1200
     22 C22        -7.0940    3.5414   50.4284 C.ar    1  ZINC000603906271   -0.1000
     23 C23        -5.9557    3.0643   49.8103 C.ar    1  ZINC000603906271   -0.0900
     24 C24        -5.0327    2.3111   50.5339 C.ar    1  ZINC000603906271    0.0000
     25 C25        -3.8087    1.7970   49.8706 C.2     1  ZINC000603906271    0.2700
     26 N26        -2.7112    1.4086   50.4820 N.2     1  ZINC000603906271   -0.3000
     27 N27        -1.8141    1.0010   49.4814 N.pl3   1  ZINC000603906271   -0.4800
     28 C28        -2.4463    1.1753   48.3069 C.2     1  ZINC000603906271    0.2700
     29 N29        -3.6408    1.6464   48.5499 N.2     1  ZINC000603906271   -0.5300
     30 C30        -5.2590    2.0476   51.8818 C.ar    1  ZINC000603906271   -0.0800
     31 H31        -8.1379    4.4885   56.4365 H       1  ZINC000603906271    0.0700
     32 H32        -7.3897    3.9745   57.9676 H       1  ZINC000603906271    0.0800
     33 H33        -6.4728    4.9841   56.8238 H       1  ZINC000603906271    0.0700
     34 H34        -8.1856    1.5829   55.5795 H       1  ZINC000603906271    0.4100
     35 H35        -9.8510    0.6449   55.8300 H       1  ZINC000603906271    0.1300
     36 H36       -11.5035   -1.1645   56.0421 H       1  ZINC000603906271    0.1300
     37 H37       -12.2755   -2.9187   55.9291 H       1  ZINC000603906271    0.0600
     38 H38       -13.4966   -3.6577   56.9926 H       1  ZINC000603906271    0.0600
     39 H39       -13.2610   -1.8934   56.9995 H       1  ZINC000603906271    0.0600
     40 H40       -10.2647   -4.4583   58.6575 H       1  ZINC000603906271    0.0600
     41 H41       -11.7470   -5.1555   57.9609 H       1  ZINC000603906271    0.0600
     42 H42       -10.5259   -4.4165   56.8973 H       1  ZINC000603906271    0.0600
     43 H43       -12.8945   -1.9519   59.4702 H       1  ZINC000603906271    0.0600
     44 H44       -13.1301   -3.7162   59.4634 H       1  ZINC000603906271    0.0600
     45 H45       -11.6480   -3.0190   60.1601 H       1  ZINC000603906271    0.0600
     46 H46        -9.6942   -2.4145   59.6982 H       1  ZINC000603906271    0.1400
     47 H47        -8.0283   -0.6156   59.5018 H       1  ZINC000603906271    0.1400
     48 H48        -6.9671    1.3844   54.1199 H       1  ZINC000603906271    0.4200
     49 H49        -8.2153    3.6496   52.2441 H       1  ZINC000603906271    0.1300
     50 H50        -7.8081    4.1245   49.8658 H       1  ZINC000603906271    0.1400
     51 H51        -5.7804    3.2743   48.7655 H       1  ZINC000603906271    0.1400
     52 H52        -0.9151    0.6608   49.6117 H       1  ZINC000603906271    0.4400
     53 H53        -2.0384    0.9585   47.3306 H       1  ZINC000603906271    0.2300
     54 H54        -4.5467    1.4645   52.4467 H       1  ZINC000603906271    0.1500
@<TRIPOS>BOND
     1     1     2    1
     2     1    31    1
     3     1    32    1
     4     1    33    1
     5     2     3    1
     6     2     4    1
     7     2    17    1
     8     4     5   am
     9     4    34    1
    10     5     6    2
    11     5     7    1
    12     7    16   ar
    13     7     8   ar
    14     8     9   ar
    15     8    35    1
    16     9    10   ar
    17     9    36    1
    18    10    11    1
    19    10    15   ar
    20    11    12    1
    21    11    13    1
    22    11    14    1
    23    12    37    1
    24    12    38    1
    25    12    39    1
    26    13    40    1
    27    13    41    1
    28    13    42    1
    29    14    43    1
    30    14    44    1
    31    14    45    1
    32    15    16   ar
    33    15    46    1
    34    16    47    1
    35    17    18    2
    36    17    19   am
    37    19    20    1
    38    19    48    1
    39    20    30   ar
    40    20    21   ar
    41    21    22   ar
    42    21    49    1
    43    22    23   ar
    44    22    50    1
    45    23    24   ar
    46    23    51    1
    47    24    25    1
    48    24    30   ar
    49    25    29    1
    50    25    26    2
    51    26    27    1
    52    27    28    1
    53    27    52    1
    54    28    29    2
    55    28    53    1
    56    30    54    1
@<TRIPOS>SUBSTRUCTURE
     1 ZINC000603906271        1 TEMP              0 ****  ****    0 ROOT


##########                                Name:    ZINC000517001504
##########                DOCK_Rotatable_Bonds:                   5
##########                         Heavy_Atoms:                  29
##########                    Molecular_Weight:             403.401
##########                DOCK_Rotatable_Bonds:                   5
##########                       Formal_Charge:          -0.0200002
##########                     HBond_Acceptors:                   7
##########                        HBond_Donors:                   0
##########                         Heavy_Atoms:                  29
##########                          Grid_Score:          -30.693426
##########                     Grid_vdw_energy:          -28.785093
##########                      Grid_es_energy:           -1.908332
##########           Internal_energy_repulsive:           35.555042

@<TRIPOS>MOLECULE
ZINC000517001504
 49 52 1 0 0
SMALL
USER_CHARGES


@<TRIPOS>ATOM
      1 O1         -2.9654    2.0512   46.2184 O.2     1  ZINC000517001504   -0.5200
      2 C2         -1.9688    1.8113   46.8666 C.2     1  ZINC000517001504    0.5400
      3 N3         -1.9809    1.9704   48.2050 N.am    1  ZINC000517001504   -0.6100
      4 C4         -0.7860    1.6800   49.0131 C.3     1  ZINC000517001504    0.0600
      5 C5         -1.1956    0.7592   50.1682 C.3     1  ZINC000517001504    0.0500
      6 O6         -2.3050    1.3372   50.8603 O.3     1  ZINC000517001504   -0.3700
      7 C7         -3.4818    1.4822   50.0615 C.3     1  ZINC000517001504    0.1200
      8 H8         -3.7755    0.5099   49.6659 H       1  ZINC000517001504    0.0800
      9 C9         -4.5981    2.0398   50.9066 C.ar    1  ZINC000517001504   -0.0600
     10 C10        -4.5944    3.3755   51.2628 C.ar    1  ZINC000517001504   -0.0900
     11 C11        -5.6183    3.8869   52.0380 C.ar    1  ZINC000517001504   -0.0700
     12 C12        -6.6462    3.0628   52.4566 C.ar    1  ZINC000517001504   -0.1800
     13 C13        -7.7622    3.6202   53.3021 C.3     1  ZINC000517001504    0.5100
     14 F14        -8.9128    2.8441   53.1261 F       1  ZINC000517001504   -0.1800
     15 F15        -7.3842    3.5952   54.6487 F       1  ZINC000517001504   -0.1800
     16 F16        -8.0257    4.9389   52.9160 F       1  ZINC000517001504   -0.1800
     17 C17        -6.6506    1.7274   52.0993 C.ar    1  ZINC000517001504   -0.0700
     18 C18        -5.6286    1.2169   51.3208 C.ar    1  ZINC000517001504   -0.1000
     19 C19        -3.1875    2.4455   48.9003 C.3     1  ZINC000517001504    0.0900
     20 C20        -0.7189    1.3295   46.1764 C.3     1  ZINC000517001504   -0.0600
     21 C21         0.4265    2.3020   46.2921 C.ar    1  ZINC000517001504   -0.0700
     22 C22         0.3580    3.5289   45.6589 C.ar    1  ZINC000517001504   -0.1200
     23 C23         1.4086    4.4210   45.7651 C.ar    1  ZINC000517001504   -0.1100
     24 C24         2.5275    4.0865   46.5048 C.ar    1  ZINC000517001504   -0.1100
     25 C25         2.5954    2.8599   47.1387 C.ar    1  ZINC000517001504   -0.1100
     26 C26         1.5431    1.9696   47.0361 C.ar    1  ZINC000517001504   -0.1000
     27 C27        -0.3391   -0.1193   46.5277 C.3     1  ZINC000517001504   -0.1600
     28 C28        -1.2002   -0.5389   45.3529 C.2     1  ZINC000517001504    0.3600
     29 O29        -1.8124   -1.5314   45.0396 O.2     1  ZINC000517001504   -0.4100
     30 C30        -0.9600    0.8275   44.7423 C.3     1  ZINC000517001504   -0.1900
     31 H31        -0.0370    1.1838   48.3959 H       1  ZINC000517001504    0.1000
     32 H32        -0.3774    2.6088   49.4112 H       1  ZINC000517001504    0.0800
     33 H33        -1.4810   -0.2157   49.7730 H       1  ZINC000517001504    0.0600
     34 H34        -0.3580    0.6431   50.8559 H       1  ZINC000517001504    0.1100
     35 H35        -3.7914    4.0194   50.9358 H       1  ZINC000517001504    0.1400
     36 H36        -5.6151    4.9303   52.3169 H       1  ZINC000517001504    0.1400
     37 H37        -7.4538    1.0837   52.4260 H       1  ZINC000517001504    0.1400
     38 H38        -5.6322    0.1736   51.0417 H       1  ZINC000517001504    0.1400
     39 H39        -3.0220    3.4500   49.2897 H       1  ZINC000517001504    0.0800
     40 H40        -4.0293    2.4536   48.2079 H       1  ZINC000517001504    0.1100
     41 H41        -0.5160    3.7903   45.0810 H       1  ZINC000517001504    0.1300
     42 H42         1.3555    5.3793   45.2698 H       1  ZINC000517001504    0.1300
     43 H43         3.3485    4.7831   46.5871 H       1  ZINC000517001504    0.1300
     44 H44         3.4697    2.5983   47.7164 H       1  ZINC000517001504    0.1300
     45 H45         1.5962    1.0113   47.5314 H       1  ZINC000517001504    0.1200
     46 H46         0.7203   -0.3387   46.3942 H       1  ZINC000517001504    0.1300
     47 H47        -0.7234   -0.4507   47.4924 H       1  ZINC000517001504    0.1100
     48 H48        -1.8438    1.2576   44.2710 H       1  ZINC000517001504    0.1000
     49 H49        -0.0749    0.8738   44.1078 H       1  ZINC000517001504    0.1400
@<TRIPOS>BOND
     1     1     2    2
     2     2     3   am
     3     2    20    1
     4     3    19    1
     5     3     4    1
     6     4     5    1
     7     4    31    1
     8     4    32    1
     9     5     6    1
    10     5    33    1
    11     5    34    1
    12     6     7    1
    13     7     8    1
    14     7     9    1
    15     7    19    1
    16     9    18   ar
    17     9    10   ar
    18    10    11   ar
    19    10    35    1
    20    11    12   ar
    21    11    36    1
    22    12    13    1
    23    12    17   ar
    24    13    14    1
    25    13    15    1
    26    13    16    1
    27    17    18   ar
    28    17    37    1
    29    18    38    1
    30    19    39    1
    31    19    40    1
    32    20    30    1
    33    20    21    1
    34    20    27    1
    35    21    26   ar
    36    21    22   ar
    37    22    23   ar
    38    22    41    1
    39    23    24   ar
    40    23    42    1
    41    24    25   ar
    42    24    43    1
    43    25    26   ar
    44    25    44    1
    45    26    45    1
    46    27    28    1
    47    27    46    1
    48    27    47    1
    49    28    29    2
    50    28    30    1
    51    30    48    1
    52    30    49    1
@<TRIPOS>SUBSTRUCTURE
     1 ZINC000517001504        1 TEMP              0 ****  ****    0 ROOT


##########                                Name:    ZINC001400108193
##########                DOCK_Rotatable_Bonds:                   9
##########                         Heavy_Atoms:                  25
##########                    Molecular_Weight:              344.41
##########                DOCK_Rotatable_Bonds:                   9
##########                       Formal_Charge:           0.0200001
##########                     HBond_Acceptors:                   6
##########                        HBond_Donors:                   2
##########                         Heavy_Atoms:                  25
##########                          Grid_Score:          -30.687765
##########                     Grid_vdw_energy:          -30.493168
##########                      Grid_es_energy:           -0.194597
##########           Internal_energy_repulsive:            7.124677

@<TRIPOS>MOLECULE
ZINC001400108193
 49 50 1 0 0
SMALL
USER_CHARGES


@<TRIPOS>ATOM
      1 C1         -4.6564    1.6076   51.0304 C.3     1  ZINC001400108193   -0.0800
      2 C2         -5.6475    1.1006   52.0461 C.2     1  ZINC001400108193   -0.0100
      3 C3         -6.8839    0.6570   51.7724 C.2     1  ZINC001400108193   -0.1600
      4 C4         -7.4704    0.2722   53.0646 C.2     1  ZINC001400108193   -0.2300
      5 C5         -8.8170   -0.2768   53.3035 C.2     1  ZINC001400108193    0.5900
      6 O6         -9.5781   -0.4484   52.3706 O.2     1  ZINC001400108193   -0.5300
      7 N7         -9.2050   -0.5889   54.5560 N.am    1  ZINC001400108193   -0.7300
      8 C8        -10.5443   -1.1330   54.7937 C.3     1  ZINC001400108193    0.1100
      9 C9        -10.5192   -2.0250   56.0365 C.3     1  ZINC001400108193    0.1300
     10 H10        -9.8450   -2.8646   55.8675 H       1  ZINC001400108193    0.1000
     11 C11       -10.0309   -1.2126   57.2376 C.3     1  ZINC001400108193   -0.1600
     12 N12       -11.8688   -2.5285   56.3037 N.am    1  ZINC001400108193   -0.7300
     13 C13       -12.0355   -3.7146   56.9214 C.2     1  ZINC001400108193    0.5200
     14 O14       -11.0682   -4.3645   57.2576 O.2     1  ZINC001400108193   -0.5100
     15 C15       -13.4238   -4.2334   57.1946 C.3     1  ZINC001400108193    0.0700
     16 H16       -14.1551   -3.5889   56.7068 H       1  ZINC001400108193    0.1000
     17 C17       -13.5532   -5.6565   56.6478 C.3     1  ZINC001400108193   -0.1800
     18 O18       -13.6607   -4.2413   58.6038 O.3     1  ZINC001400108193   -0.2800
     19 C19       -14.0695   -3.0741   59.1672 C.ar    1  ZINC001400108193    0.1200
     20 C20       -13.1740   -2.3015   59.8924 C.ar    1  ZINC001400108193   -0.2100
     21 C21       -13.5920   -1.1153   60.4637 C.ar    1  ZINC001400108193   -0.0800
     22 C22       -14.9028   -0.7003   60.3176 C.ar    1  ZINC001400108193   -0.1200
     23 C23       -15.3576    0.5913   60.9472 C.3     1  ZINC001400108193   -0.1100
     24 C24       -15.7958   -1.4658   59.5909 C.ar    1  ZINC001400108193   -0.0800
     25 C25       -15.3829   -2.6529   59.0175 C.ar    1  ZINC001400108193   -0.1400
     26 C26        -6.5097    0.5352   53.9967 C.2     1  ZINC001400108193    0.0200
     27 O27        -5.4344    1.0208   53.3687 O.3     1  ZINC001400108193   -0.1700
     28 H28        -4.7851    2.6824   50.9023 H       1  ZINC001400108193    0.0900
     29 H29        -3.6436    1.4018   51.3768 H       1  ZINC001400108193    0.0800
     30 H30        -4.8236    1.1055   50.0774 H       1  ZINC001400108193    0.0900
     31 H31        -7.3524    0.5948   50.8013 H       1  ZINC001400108193    0.1600
     32 H32        -8.5976   -0.4531   55.2999 H       1  ZINC001400108193    0.4000
     33 H33       -10.8560   -1.7212   53.9306 H       1  ZINC001400108193    0.0800
     34 H34       -11.2470   -0.3142   54.9483 H       1  ZINC001400108193    0.0900
     35 H35       -10.0129   -1.8481   58.1229 H       1  ZINC001400108193    0.0700
     36 H36        -9.0267   -0.8380   57.0388 H       1  ZINC001400108193    0.0700
     37 H37       -10.7051   -0.3729   57.4066 H       1  ZINC001400108193    0.0600
     38 H38       -12.6424   -2.0081   56.0359 H       1  ZINC001400108193    0.4000
     39 H39       -13.3725   -5.6506   55.5729 H       1  ZINC001400108193    0.0800
     40 H40       -12.8219   -6.3011   57.1357 H       1  ZINC001400108193    0.0800
     41 H41       -14.5573   -6.0318   56.8454 H       1  ZINC001400108193    0.0800
     42 H42       -12.1513   -2.6276   60.0106 H       1  ZINC001400108193    0.1300
     43 H43       -12.8954   -0.5136   61.0287 H       1  ZINC001400108193    0.1300
     44 H44       -15.2112    1.4101   60.2428 H       1  ZINC001400108193    0.0700
     45 H45       -16.4142    0.5177   61.2044 H       1  ZINC001400108193    0.0700
     46 H46       -14.7762    0.7799   61.8497 H       1  ZINC001400108193    0.0700
     47 H47       -16.8181   -1.1375   59.4747 H       1  ZINC001400108193    0.1300
     48 H48       -16.0818   -3.2524   58.4531 H       1  ZINC001400108193    0.1300
     49 H49        -6.6015    0.3756   55.0609 H       1  ZINC001400108193    0.2100
@<TRIPOS>BOND
     1     1     2    1
     2     1    28    1
     3     1    29    1
     4     1    30    1
     5     2    27    1
     6     2     3    2
     7     3     4    1
     8     3    31    1
     9     4     5    1
    10     4    26    2
    11     5     6    2
    12     5     7   am
    13     7     8    1
    14     7    32    1
    15     8     9    1
    16     8    33    1
    17     8    34    1
    18     9    10    1
    19     9    11    1
    20     9    12    1
    21    11    35    1
    22    11    36    1
    23    11    37    1
    24    12    13   am
    25    12    38    1
    26    13    14    2
    27    13    15    1
    28    15    16    1
    29    15    17    1
    30    15    18    1
    31    17    39    1
    32    17    40    1
    33    17    41    1
    34    18    19    1
    35    19    25   ar
    36    19    20   ar
    37    20    21   ar
    38    20    42    1
    39    21    22   ar
    40    21    43    1
    41    22    23    1
    42    22    24   ar
    43    23    44    1
    44    23    45    1
    45    23    46    1
    46    24    25   ar
    47    24    47    1
    48    25    48    1
    49    26    27    1
    50    26    49    1
@<TRIPOS>SUBSTRUCTURE
     1 ZINC001400108193        1 TEMP              0 ****  ****    0 ROOT


##########                                Name:    ZINC000450219577
##########                DOCK_Rotatable_Bonds:                   8
##########                         Heavy_Atoms:                  26
##########                    Molecular_Weight:             353.421
##########                DOCK_Rotatable_Bonds:                   8
##########                       Formal_Charge:          -0.0199997
##########                     HBond_Acceptors:                   6
##########                        HBond_Donors:                   1
##########                         Heavy_Atoms:                  26
##########                          Grid_Score:          -30.686321
##########                     Grid_vdw_energy:          -30.670366
##########                      Grid_es_energy:           -0.015955
##########           Internal_energy_repulsive:           35.377296

@<TRIPOS>MOLECULE
ZINC000450219577
 49 51 1 0 0
SMALL
USER_CHARGES


@<TRIPOS>ATOM
      1 C1         -8.1956   -0.8132   60.8238 C.3     1  ZINC000450219577   -0.1800
      2 C2         -9.5752   -0.1522   60.8525 C.3     1  ZINC000450219577    0.1200
      3 C3        -10.4946   -0.9317   61.7948 C.3     1  ZINC000450219577   -0.1800
      4 C4         -9.4399    1.2888   61.3484 C.3     1  ZINC000450219577   -0.1400
      5 O5        -10.1400   -0.1529   59.5149 O.3     1  ZINC000450219577   -0.3400
      6 C6        -10.4385   -1.3473   58.9800 C.2     1  ZINC000450219577    0.4700
      7 O7        -10.0371   -2.3603   59.5022 O.2     1  ZINC000450219577   -0.5000
      8 C8        -11.2741   -1.4247   57.7283 C.3     1  ZINC000450219577    0.2000
      9 H9        -11.9742   -0.5896   57.7066 H       1  ZINC000450219577    0.1400
     10 N10       -10.4010   -1.3605   56.5536 N.am    1  ZINC000450219577   -0.7100
     11 C11        -9.9015   -0.1759   56.1491 C.2     1  ZINC000450219577    0.5800
     12 O12       -10.1765    0.8395   56.7581 O.2     1  ZINC000450219577   -0.5200
     13 C13        -9.0191   -0.1114   54.9648 C.ar    1  ZINC000450219577   -0.2500
     14 C14        -7.8170    0.6042   55.0014 C.ar    1  ZINC000450219577    0.1900
     15 N15        -7.0583    0.6350   53.9198 N.ar    1  ZINC000450219577   -0.5100
     16 C16        -7.4197    0.0049   52.8193 C.ar    1  ZINC000450219577    0.3800
     17 C17        -6.5200    0.0702   51.6123 C.3     1  ZINC000450219577   -0.1100
     18 C18        -6.8345    1.1287   50.5531 C.3     1  ZINC000450219577   -0.1500
     19 C19        -5.6199    1.2991   51.4677 C.3     1  ZINC000450219577   -0.1500
     20 N20        -8.5433   -0.6811   52.7416 N.ar    1  ZINC000450219577   -0.5200
     21 C21        -9.3593   -0.7690   53.7773 C.ar    1  ZINC000450219577    0.2200
     22 C22       -12.0397   -2.7227   57.7148 C.ar    1  ZINC000450219577   -0.1100
     23 C23       -11.3674   -3.9201   57.5567 C.ar    1  ZINC000450219577   -0.1000
     24 C24       -12.0696   -5.1106   57.5444 C.ar    1  ZINC000450219577   -0.1200
     25 C25       -13.4442   -5.1039   57.6906 C.ar    1  ZINC000450219577   -0.1100
     26 C26       -14.1164   -3.9066   57.8497 C.ar    1  ZINC000450219577   -0.1200
     27 C27       -13.4137   -2.7162   57.8663 C.ar    1  ZINC000450219577   -0.0800
     28 H28        -8.2919   -1.8399   60.4706 H       1  ZINC000450219577    0.0800
     29 H29        -7.5406   -0.2580   60.1525 H       1  ZINC000450219577    0.0600
     30 H30        -7.7715   -0.8128   61.8279 H       1  ZINC000450219577    0.0700
     31 H31       -10.0706   -0.9312   62.7989 H       1  ZINC000450219577    0.0700
     32 H32       -11.4774   -0.4607   61.8154 H       1  ZINC000450219577    0.0600
     33 H33       -10.5910   -1.9583   61.4416 H       1  ZINC000450219577    0.0800
     34 H34        -8.7849    1.8442   60.6770 H       1  ZINC000450219577    0.0700
     35 H35       -10.4227    1.7597   61.3688 H       1  ZINC000450219577    0.0700
     36 H36        -9.0158    1.2893   62.3525 H       1  ZINC000450219577    0.0800
     37 H37       -10.1824   -2.1706   56.0669 H       1  ZINC000450219577    0.4100
     38 H38        -7.5144    1.1232   55.8989 H       1  ZINC000450219577    0.1700
     39 H39        -6.1257   -0.8856   51.2674 H       1  ZINC000450219577    0.1300
     40 H40        -6.6473    0.8691   49.5111 H       1  ZINC000450219577    0.1000
     41 H41        -7.6923    1.7776   50.7294 H       1  ZINC000450219577    0.1100
     42 H42        -5.6786    2.0603   52.2458 H       1  ZINC000450219577    0.1000
     43 H43        -4.6337    1.1517   51.0275 H       1  ZINC000450219577    0.1100
     44 H44       -10.2778   -1.3327   53.7059 H       1  ZINC000450219577    0.1800
     45 H45       -10.2934   -3.9254   57.4425 H       1  ZINC000450219577    0.1200
     46 H46       -11.5444   -6.0461   57.4201 H       1  ZINC000450219577    0.1200
     47 H47       -13.9929   -6.0340   57.6803 H       1  ZINC000450219577    0.1300
     48 H48       -15.1904   -3.9013   57.9636 H       1  ZINC000450219577    0.1300
     49 H49       -13.9389   -1.7808   57.9906 H       1  ZINC000450219577    0.1300
@<TRIPOS>BOND
     1     1     2    1
     2     1    28    1
     3     1    29    1
     4     1    30    1
     5     2     3    1
     6     2     4    1
     7     2     5    1
     8     3    31    1
     9     3    32    1
    10     3    33    1
    11     4    34    1
    12     4    35    1
    13     4    36    1
    14     5     6    1
    15     6     7    2
    16     6     8    1
    17     8     9    1
    18     8    10    1
    19     8    22    1
    20    10    11   am
    21    10    37    1
    22    11    12    2
    23    11    13    1
    24    13    21   ar
    25    13    14   ar
    26    14    15   ar
    27    14    38    1
    28    15    16   ar
    29    16    17    1
    30    16    20   ar
    31    17    19    1
    32    17    18    1
    33    17    39    1
    34    18    19    1
    35    18    40    1
    36    18    41    1
    37    19    42    1
    38    19    43    1
    39    20    21   ar
    40    21    44    1
    41    22    27   ar
    42    22    23   ar
    43    23    24   ar
    44    23    45    1
    45    24    25   ar
    46    24    46    1
    47    25    26   ar
    48    25    47    1
    49    26    27   ar
    50    26    48    1
    51    27    49    1
@<TRIPOS>SUBSTRUCTURE
     1 ZINC000450219577        1 TEMP              0 ****  ****    0 ROOT


##########                                Name:    ZINC001436455587
##########                DOCK_Rotatable_Bonds:                   9
##########                         Heavy_Atoms:                  21
##########                    Molecular_Weight:             378.693
##########                DOCK_Rotatable_Bonds:                   9
##########                       Formal_Charge:          -0.0200001
##########                     HBond_Acceptors:                   5
##########                        HBond_Donors:                   1
##########                         Heavy_Atoms:                  21
##########                          Grid_Score:          -30.668095
##########                     Grid_vdw_energy:          -29.989651
##########                      Grid_es_energy:           -0.678444
##########           Internal_energy_repulsive:           11.781798

@<TRIPOS>MOLECULE
ZINC001436455587
 42 42 1 0 0
SMALL
USER_CHARGES


@<TRIPOS>ATOM
      1 C1         -0.7990   -0.5892   45.8912 C.3     1  ZINC001436455587   -0.1500
      2 C2         -1.1094    0.8893   45.6497 C.3     1  ZINC001436455587   -0.1300
      3 C3         -0.5461    1.7235   46.8020 C.3     1  ZINC001436455587   -0.1400
      4 C4         -1.4763    1.6156   48.0119 C.3     1  ZINC001436455587    0.0800
      5 H5         -1.8045    0.5825   48.1268 H       1  ZINC001436455587    0.0700
      6 C6         -2.6943    2.5172   47.8010 C.3     1  ZINC001436455587    0.1200
      7 N7         -3.8351    1.9791   48.5461 N.am    1  ZINC001436455587   -0.7200
      8 C8         -4.6311    2.8077   49.2506 C.2     1  ZINC001436455587    0.5200
      9 O9         -4.4038    3.9988   49.2665 O.2     1  ZINC001436455587   -0.5100
     10 C10        -5.8036    2.2539   50.0186 C.3     1  ZINC001436455587    0.0600
     11 H11        -6.3594    1.5630   49.3847 H       1  ZINC001436455587    0.1000
     12 C12        -6.7198    3.4015   50.4479 C.3     1  ZINC001436455587   -0.1800
     13 O13        -5.3311    1.5629   51.1766 O.3     1  ZINC001436455587   -0.2700
     14 C14        -6.2647    0.9605   51.9597 C.ar    1  ZINC001436455587    0.1600
     15 C15        -7.0306   -0.0782   51.4526 C.ar    1  ZINC001436455587   -0.2000
     16 C16        -7.9789   -0.6898   52.2502 C.ar    1  ZINC001436455587   -0.0500
     17 C17        -8.1651   -0.2665   53.5540 C.ar    1  ZINC001436455587   -0.0700
     18 Cl18       -9.3576   -1.0363   54.5535 Cl      1  ZINC001436455587   -0.0600
     19 C19        -7.4018    0.7697   54.0627 C.ar    1  ZINC001436455587   -0.0400
     20 C20        -6.4487    1.3805   53.2701 C.ar    1  ZINC001436455587   -0.1200
     21 Br21       -5.4056    2.7963   53.9653 Br      1  ZINC001436455587   -0.0100
     22 O22        -0.7773    2.0269   49.1885 O.3     1  ZINC001436455587   -0.3800
     23 C23        -0.9108    1.1251   50.2890 C.3     1  ZINC001436455587    0.0200
     24 H24         0.2806   -0.7294   45.9474 H       1  ZINC001436455587    0.0500
     25 H25        -1.2561   -0.9082   46.8279 H       1  ZINC001436455587    0.0600
     26 H26        -1.2002   -1.1836   45.0703 H       1  ZINC001436455587    0.0600
     27 H27        -0.6522    1.2083   44.7130 H       1  ZINC001436455587    0.0600
     28 H28        -2.1888    1.0295   45.5935 H       1  ZINC001436455587    0.0700
     29 H29         0.4430    1.3520   47.0699 H       1  ZINC001436455587    0.0800
     30 H30        -0.4713    2.7661   46.4931 H       1  ZINC001436455587    0.0800
     31 H31        -2.4686    3.5221   48.1579 H       1  ZINC001436455587    0.0800
     32 H32        -2.9388    2.5551   46.7394 H       1  ZINC001436455587    0.0800
     33 H33        -4.0176    1.0265   48.5324 H       1  ZINC001436455587    0.4000
     34 H34        -7.5679    3.0010   51.0034 H       1  ZINC001436455587    0.0800
     35 H35        -6.1641    4.0926   51.0817 H       1  ZINC001436455587    0.0800
     36 H36        -7.0804    3.9286   49.5645 H       1  ZINC001436455587    0.0800
     37 H37        -6.8863   -0.4088   50.4346 H       1  ZINC001436455587    0.1500
     38 H38        -8.5755   -1.4988   51.8553 H       1  ZINC001436455587    0.1400
     39 H39        -7.5483    1.0986   55.0809 H       1  ZINC001436455587    0.1500
     40 H40        -0.4400    0.1744   50.0388 H       1  ZINC001436455587    0.0500
     41 H41        -0.4262    1.5503   51.1679 H       1  ZINC001436455587    0.0900
     42 H42        -1.9678    0.9628   50.4995 H       1  ZINC001436455587    0.0400
@<TRIPOS>BOND
     1     1     2    1
     2     1    24    1
     3     1    25    1
     4     1    26    1
     5     2     3    1
     6     2    27    1
     7     2    28    1
     8     3     4    1
     9     3    29    1
    10     3    30    1
    11     4     5    1
    12     4     6    1
    13     4    22    1
    14     6     7    1
    15     6    31    1
    16     6    32    1
    17     7     8   am
    18     7    33    1
    19     8     9    2
    20     8    10    1
    21    10    11    1
    22    10    12    1
    23    10    13    1
    24    12    34    1
    25    12    35    1
    26    12    36    1
    27    13    14    1
    28    14    20   ar
    29    14    15   ar
    30    15    16   ar
    31    15    37    1
    32    16    17   ar
    33    16    38    1
    34    17    18    1
    35    17    19   ar
    36    19    20   ar
    37    19    39    1
    38    20    21    1
    39    22    23    1
    40    23    40    1
    41    23    41    1
    42    23    42    1
@<TRIPOS>SUBSTRUCTURE
     1 ZINC001436455587        1 TEMP              0 ****  ****    0 ROOT


##########                                Name:    ZINC000191003171
##########                DOCK_Rotatable_Bonds:                   6
##########                         Heavy_Atoms:                  26
##########                    Molecular_Weight:             389.414
##########                DOCK_Rotatable_Bonds:                   6
##########                       Formal_Charge:          -0.0200002
##########                     HBond_Acceptors:                   8
##########                        HBond_Donors:                   1
##########                         Heavy_Atoms:                  26
##########                          Grid_Score:          -30.641521
##########                     Grid_vdw_energy:          -29.862837
##########                      Grid_es_energy:           -0.778684
##########           Internal_energy_repulsive:           16.074472

@<TRIPOS>MOLECULE
ZINC000191003171
 45 46 1 0 0
SMALL
USER_CHARGES


@<TRIPOS>ATOM
      1 C1        -10.2457   -1.6535   55.5768 C.3     1  ZINC000191003171   -0.1200
      2 C2         -9.2028   -0.6014   55.2998 C.ar    1  ZINC000191003171   -0.0800
      3 C3         -8.5571   -0.5732   54.0782 C.ar    1  ZINC000191003171   -0.0700
      4 C4         -7.6004    0.3921   53.8241 C.ar    1  ZINC000191003171   -0.1800
      5 C5         -6.8960    0.4226   52.4922 C.3     1  ZINC000191003171    0.5100
      6 F6         -6.8554   -0.8691   51.9564 F       1  ZINC000191003171   -0.1800
      7 F7         -7.5872    1.2685   51.6184 F       1  ZINC000191003171   -0.1800
      8 F8         -5.5911    0.8967   52.6655 F       1  ZINC000191003171   -0.1800
      9 C9         -7.2903    1.3293   54.7914 C.ar    1  ZINC000191003171   -0.0800
     10 C10        -7.9366    1.3014   56.0133 C.ar    1  ZINC000191003171   -0.1000
     11 C11        -8.8962    0.3391   56.2658 C.ar    1  ZINC000191003171   -0.0500
     12 C12        -9.6006    0.3086   57.5976 C.3     1  ZINC000191003171    0.0900
     13 N13        -8.8431   -0.5334   58.5331 N.3     1  ZINC000191003171   -0.6800
     14 C14        -9.4048   -0.4519   59.8880 C.3     1  ZINC000191003171    0.1200
     15 H15        -9.4974    0.5940   60.1807 H       1  ZINC000191003171    0.0600
     16 C16        -8.4792   -1.1756   60.8681 C.3     1  ZINC000191003171   -0.1400
     17 C17       -10.7644   -1.1014   59.9081 C.ar    1  ZINC000191003171   -0.0100
     18 C18       -10.9626   -2.3093   59.2658 C.ar    1  ZINC000191003171   -0.1300
     19 C19       -12.2096   -2.9064   59.2835 C.ar    1  ZINC000191003171    0.0100
     20 C20       -13.2592   -2.2961   59.9432 C.ar    1  ZINC000191003171   -0.7000
     21 S21       -14.8481   -3.0575   59.9654 S.o2    1  ZINC000191003171    2.5000
     22 C22       -14.8128   -4.2193   58.5727 C.3     1  ZINC000191003171   -0.6500
     23 O23       -14.8827   -3.7600   61.2001 O.2     1  ZINC000191003171   -0.9300
     24 O24       -15.7509   -1.9920   59.7032 O.2     1  ZINC000191003171   -0.9300
     25 C25       -13.0616   -1.0864   60.5875 C.ar    1  ZINC000191003171    0.1900
     26 F26       -14.0871   -0.4888   61.2329 F       1  ZINC000191003171   -0.1200
     27 C27       -11.8114   -0.4920   60.5736 C.ar    1  ZINC000191003171   -0.1700
     28 H28       -11.2242   -1.2851   55.2688 H       1  ZINC000191003171    0.0800
     29 H29       -10.0060   -2.5585   55.0185 H       1  ZINC000191003171    0.0800
     30 H30       -10.2611   -1.8779   56.6433 H       1  ZINC000191003171    0.0600
     31 H31        -8.7996   -1.3053   53.3221 H       1  ZINC000191003171    0.1400
     32 H32        -6.5430    2.0832   54.5930 H       1  ZINC000191003171    0.1400
     33 H33        -7.6942    2.0335   56.7693 H       1  ZINC000191003171    0.1400
     34 H34        -9.6705    1.3211   57.9949 H       1  ZINC000191003171    0.0900
     35 H35       -10.6024   -0.1013   57.4694 H       1  ZINC000191003171    0.0500
     36 H36        -8.8090   -1.4896   58.2127 H       1  ZINC000191003171    0.3500
     37 H37        -8.8960   -1.1152   61.8735 H       1  ZINC000191003171    0.0600
     38 H38        -8.3867   -2.2216   60.5755 H       1  ZINC000191003171    0.0700
     39 H39        -7.4958   -0.7058   60.8536 H       1  ZINC000191003171    0.0600
     40 H40       -10.1430   -2.7867   58.7496 H       1  ZINC000191003171    0.1500
     41 H41       -12.3634   -3.8499   58.7810 H       1  ZINC000191003171    0.1600
     42 H42       -14.0123   -4.9436   58.7239 H       1  ZINC000191003171    0.1300
     43 H43       -15.7678   -4.7410   58.5105 H       1  ZINC000191003171    0.1400
     44 H44       -14.6370   -3.6714   57.6469 H       1  ZINC000191003171    0.1300
     45 H45       -11.6561    0.4513   61.0760 H       1  ZINC000191003171    0.1500
@<TRIPOS>BOND
     1     1     2    1
     2     1    28    1
     3     1    29    1
     4     1    30    1
     5     2    11   ar
     6     2     3   ar
     7     3     4   ar
     8     3    31    1
     9     4     5    1
    10     4     9   ar
    11     5     6    1
    12     5     7    1
    13     5     8    1
    14     9    10   ar
    15     9    32    1
    16    10    11   ar
    17    10    33    1
    18    11    12    1
    19    12    13    1
    20    12    34    1
    21    12    35    1
    22    13    14    1
    23    13    36    1
    24    14    15    1
    25    14    16    1
    26    14    17    1
    27    16    37    1
    28    16    38    1
    29    16    39    1
    30    17    27   ar
    31    17    18   ar
    32    18    19   ar
    33    18    40    1
    34    19    20   ar
    35    19    41    1
    36    20    21    1
    37    20    25   ar
    38    21    22    1
    39    21    23    2
    40    21    24    2
    41    22    42    1
    42    22    43    1
    43    22    44    1
    44    25    26    1
    45    25    27   ar
    46    27    45    1
@<TRIPOS>SUBSTRUCTURE
     1 ZINC000191003171        1 TEMP              0 ****  ****    0 ROOT


##########                                Name:    ZINC000269287897
##########                DOCK_Rotatable_Bonds:                   8
##########                         Heavy_Atoms:                  23
##########                    Molecular_Weight:             385.301
##########                DOCK_Rotatable_Bonds:                   8
##########                       Formal_Charge:           0.0300002
##########                     HBond_Acceptors:                   5
##########                        HBond_Donors:                   1
##########                         Heavy_Atoms:                  23
##########                          Grid_Score:          -30.631308
##########                     Grid_vdw_energy:          -28.537401
##########                      Grid_es_energy:           -2.093907
##########           Internal_energy_repulsive:           13.589808

@<TRIPOS>MOLECULE
ZINC000269287897
 48 49 1 0 0
SMALL
USER_CHARGES


@<TRIPOS>ATOM
      1 C1         -5.7661    0.0623   67.9465 C.3     1  ZINC000269287897    0.0300
      2 O2         -6.8045   -0.8044   67.4854 O.3     1  ZINC000269287897   -0.3800
      3 C3         -7.8012   -0.1497   66.6981 C.3     1  ZINC000269287897    0.0600
      4 C4         -7.1887    0.2979   65.3694 C.3     1  ZINC000269287897    0.0600
      5 O5         -8.2271    0.7279   64.4870 O.3     1  ZINC000269287897   -0.3800
      6 C6         -9.2296   -0.2609   64.2435 C.3     1  ZINC000269287897    0.0700
      7 C7         -9.7135   -0.1510   62.7962 C.3     1  ZINC000269287897   -0.1000
      8 H8        -10.4848   -0.8923   62.5870 H       1  ZINC000269287897    0.1000
      9 C9        -10.2209    1.2822   62.4867 C.3     1  ZINC000269287897   -0.1200
     10 C10       -10.0049    1.4039   60.9635 C.3     1  ZINC000269287897    0.1000
     11 N11        -8.9782    0.4207   60.5883 N.am    1  ZINC000269287897   -0.6300
     12 C12        -8.5206    0.2003   59.3399 C.2     1  ZINC000269287897    0.7300
     13 O13        -7.6665   -0.6429   59.1454 O.2     1  ZINC000269287897   -0.5600
     14 N14        -9.0098    0.9147   58.3070 N.am    1  ZINC000269287897   -0.6900
     15 C15        -8.5345    0.6858   57.0103 C.ar    1  ZINC000269287897    0.1800
     16 C16        -7.5341    1.4913   56.4839 C.ar    1  ZINC000269287897   -0.0600
     17 C17        -6.9578    2.6138   57.3079 C.3     1  ZINC000269287897   -0.1000
     18 C18        -7.0666    1.2626   55.2040 C.ar    1  ZINC000269287897   -0.0900
     19 C19        -7.5941    0.2328   54.4473 C.ar    1  ZINC000269287897   -0.0800
     20 C20        -7.0817   -0.0134   53.0516 C.3     1  ZINC000269287897   -0.1100
     21 C21        -8.5908   -0.5722   54.9684 C.ar    1  ZINC000269287897   -0.0900
     22 C22        -9.0593   -0.3519   56.2494 C.ar    1  ZINC000269287897   -0.1000
     23 Br23      -10.4215   -1.4532   56.9617 Br      1  ZINC000269287897   -0.0500
     24 C24        -8.5314   -0.2845   61.8040 C.3     1  ZINC000269287897    0.1400
     25 H25        -5.2586    0.5084   67.0912 H       1  ZINC000269287897    0.0400
     26 H26        -6.1978    0.8499   68.5642 H       1  ZINC000269287897    0.0400
     27 H27        -5.0500   -0.5102   68.5359 H       1  ZINC000269287897    0.0900
     28 H28        -8.6228   -0.8395   66.5053 H       1  ZINC000269287897    0.0600
     29 H29        -8.1760    0.7205   67.2368 H       1  ZINC000269287897    0.0600
     30 H30        -6.4982    1.1224   65.5470 H       1  ZINC000269287897    0.0700
     31 H31        -6.6506   -0.5358   64.9182 H       1  ZINC000269287897    0.0600
     32 H32        -8.8101   -1.2527   64.4120 H       1  ZINC000269287897    0.0600
     33 H33       -10.0690   -0.1015   64.9203 H       1  ZINC000269287897    0.0500
     34 H34       -11.2777    1.3792   62.7353 H       1  ZINC000269287897    0.0900
     35 H35        -9.6282    2.0249   63.0208 H       1  ZINC000269287897    0.0800
     36 H36       -10.9353    1.1870   60.4386 H       1  ZINC000269287897    0.0700
     37 H37        -9.6633    2.4091   60.7167 H       1  ZINC000269287897    0.0700
     38 H38        -9.6912    1.5875   58.4621 H       1  ZINC000269287897    0.4100
     39 H39        -6.0273    2.2845   57.7703 H       1  ZINC000269287897    0.0900
     40 H40        -6.7604    3.4719   56.6654 H       1  ZINC000269287897    0.0600
     41 H41        -7.6689    2.8969   58.0839 H       1  ZINC000269287897    0.0600
     42 H42        -6.2885    1.8893   54.7941 H       1  ZINC000269287897    0.1300
     43 H43        -6.2463   -0.7125   53.0894 H       1  ZINC000269287897    0.0700
     44 H44        -7.8801   -0.4341   52.4404 H       1  ZINC000269287897    0.0700
     45 H45        -6.7481    0.9282   52.6157 H       1  ZINC000269287897    0.0700
     46 H46        -9.0008   -1.3758   54.3747 H       1  ZINC000269287897    0.1400
     47 H47        -7.6392    0.1906   62.2118 H       1  ZINC000269287897    0.0700
     48 H48        -8.3363   -1.3340   61.5837 H       1  ZINC000269287897    0.0900
@<TRIPOS>BOND
     1     1     2    1
     2     1    25    1
     3     1    26    1
     4     1    27    1
     5     2     3    1
     6     3     4    1
     7     3    28    1
     8     3    29    1
     9     4     5    1
    10     4    30    1
    11     4    31    1
    12     5     6    1
    13     6     7    1
    14     6    32    1
    15     6    33    1
    16     7     8    1
    17     7    24    1
    18     7     9    1
    19     9    10    1
    20     9    34    1
    21     9    35    1
    22    10    11    1
    23    10    36    1
    24    10    37    1
    25    11    12   am
    26    11    24    1
    27    12    13    2
    28    12    14   am
    29    14    15    1
    30    14    38    1
    31    15    22   ar
    32    15    16   ar
    33    16    17    1
    34    16    18   ar
    35    17    39    1
    36    17    40    1
    37    17    41    1
    38    18    19   ar
    39    18    42    1
    40    19    20    1
    41    19    21   ar
    42    20    43    1
    43    20    44    1
    44    20    45    1
    45    21    22   ar
    46    21    46    1
    47    22    23    1
    48    24    47    1
    49    24    48    1
@<TRIPOS>SUBSTRUCTURE
     1 ZINC000269287897        1 TEMP              0 ****  ****    0 ROOT


##########                                Name:    ZINC000536173632
##########                DOCK_Rotatable_Bonds:                   7
##########                         Heavy_Atoms:                  29
##########                    Molecular_Weight:             407.389
##########                DOCK_Rotatable_Bonds:                   7
##########                       Formal_Charge:        -2.98023e-07
##########                     HBond_Acceptors:                   8
##########                        HBond_Donors:                   0
##########                         Heavy_Atoms:                  29
##########                          Grid_Score:          -30.627844
##########                     Grid_vdw_energy:          -30.326031
##########                      Grid_es_energy:           -0.301814
##########           Internal_energy_repulsive:           14.074094

@<TRIPOS>MOLECULE
ZINC000536173632
 49 51 1 0 0
SMALL
USER_CHARGES


@<TRIPOS>ATOM
      1 C1         -4.2514    2.5007   50.8272 C.3     1  ZINC000536173632    0.0400
      2 O2         -5.0250    2.9390   51.9753 O.3     1  ZINC000536173632   -0.3500
      3 C3         -5.8281    2.0267   52.5559 C.2     1  ZINC000536173632    0.5100
      4 O4         -5.8802    0.8957   52.1159 O.2     1  ZINC000536173632   -0.5000
      5 C5         -6.6456    2.4017   53.7278 C.ar    1  ZINC000536173632   -0.1300
      6 C6         -6.7097    3.7337   54.1408 C.ar    1  ZINC000536173632   -0.0600
      7 C7         -7.4751    4.0770   55.2361 C.ar    1  ZINC000536173632   -0.1300
      8 C8         -8.1776    3.1046   55.9251 C.ar    1  ZINC000536173632   -0.0700
      9 C9         -8.1186    1.7823   55.5213 C.ar    1  ZINC000536173632   -0.0800
     10 C10        -8.8874    0.7300   56.2781 C.3     1  ZINC000536173632   -0.1000
     11 C11        -8.3328    0.6095   57.6741 C.2     1  ZINC000536173632    0.5200
     12 O12        -7.3107    1.1901   57.9729 O.2     1  ZINC000536173632   -0.5200
     13 N13        -8.9727   -0.1434   58.5907 N.am    1  ZINC000536173632   -0.6200
     14 C14        -8.4506   -0.2762   59.9601 C.3     1  ZINC000536173632    0.0700
     15 C15        -8.3879   -1.7671   60.3112 C.3     1  ZINC000536173632    0.0500
     16 O16        -9.6615   -2.3645   60.0567 O.3     1  ZINC000536173632   -0.3700
     17 C17       -10.0658   -2.3193   58.6862 C.3     1  ZINC000536173632    0.1200
     18 H18        -9.3126   -2.8079   58.0681 H       1  ZINC000536173632    0.0800
     19 C19       -11.3856   -3.0292   58.5271 C.ar    1  ZINC000536173632   -0.0900
     20 C20       -11.5140   -4.0509   57.6052 C.ar    1  ZINC000536173632   -0.0600
     21 C21       -12.7248   -4.7021   57.4592 C.ar    1  ZINC000536173632   -0.1200
     22 C22       -13.8066   -4.3318   58.2355 C.ar    1  ZINC000536173632   -0.0700
     23 C23       -13.6780   -3.3105   59.1584 C.ar    1  ZINC000536173632   -0.1800
     24 C24       -14.8577   -2.9064   60.0046 C.3     1  ZINC000536173632    0.5100
     25 F25       -14.7945   -1.5339   60.2677 F       1  ZINC000536173632   -0.1800
     26 F26       -16.0432   -3.1961   59.3206 F       1  ZINC000536173632   -0.1800
     27 F27       -14.8306   -3.6142   61.2110 F       1  ZINC000536173632   -0.1800
     28 C28       -12.4664   -2.6624   59.3074 C.ar    1  ZINC000536173632   -0.0500
     29 C29       -10.2174   -0.8521   58.2534 C.3     1  ZINC000536173632    0.0900
     30 C30        -7.3623    1.4262   54.4242 C.ar    1  ZINC000536173632   -0.0400
     31 H31        -3.5974    1.6799   51.1217 H       1  ZINC000536173632    0.0600
     32 H32        -4.9271    2.1628   50.0414 H       1  ZINC000536173632    0.0600
     33 H33        -3.6491    3.3302   50.4568 H       1  ZINC000536173632    0.1000
     34 H34        -6.1611    4.4937   53.6042 H       1  ZINC000536173632    0.1400
     35 H35        -7.5256    5.1072   55.5566 H       1  ZINC000536173632    0.1400
     36 H36        -8.7747    3.3787   56.7824 H       1  ZINC000536173632    0.1300
     37 H37        -9.9387    1.0135   56.3279 H       1  ZINC000536173632    0.1100
     38 H38        -8.7931   -0.2275   55.7658 H       1  ZINC000536173632    0.1100
     39 H39        -7.4516    0.1564   60.0156 H       1  ZINC000536173632    0.1000
     40 H40        -9.1128    0.2376   60.6569 H       1  ZINC000536173632    0.0800
     41 H41        -7.6286   -2.2537   59.6990 H       1  ZINC000536173632    0.0600
     42 H42        -8.1357   -1.8825   61.3653 H       1  ZINC000536173632    0.1100
     43 H43       -10.6686   -4.3402   56.9985 H       1  ZINC000536173632    0.1400
     44 H44       -12.8253   -5.5000   56.7383 H       1  ZINC000536173632    0.1400
     45 H45       -14.7527   -4.8401   58.1210 H       1  ZINC000536173632    0.1400
     46 H46       -12.3658   -1.8645   60.0283 H       1  ZINC000536173632    0.1400
     47 H47       -11.0581   -0.3993   58.7791 H       1  ZINC000536173632    0.0800
     48 H48       -10.3866   -0.8022   57.1778 H       1  ZINC000536173632    0.1100
     49 H49        -7.3173    0.3940   54.1098 H       1  ZINC000536173632    0.1400
@<TRIPOS>BOND
     1     1     2    1
     2     1    31    1
     3     1    32    1
     4     1    33    1
     5     2     3    1
     6     3     4    2
     7     3     5    1
     8     5    30   ar
     9     5     6   ar
    10     6     7   ar
    11     6    34    1
    12     7     8   ar
    13     7    35    1
    14     8     9   ar
    15     8    36    1
    16     9    10    1
    17     9    30   ar
    18    10    11    1
    19    10    37    1
    20    10    38    1
    21    11    12    2
    22    11    13   am
    23    13    29    1
    24    13    14    1
    25    14    15    1
    26    14    39    1
    27    14    40    1
    28    15    16    1
    29    15    41    1
    30    15    42    1
    31    16    17    1
    32    17    18    1
    33    17    19    1
    34    17    29    1
    35    19    28   ar
    36    19    20   ar
    37    20    21   ar
    38    20    43    1
    39    21    22   ar
    40    21    44    1
    41    22    23   ar
    42    22    45    1
    43    23    24    1
    44    23    28   ar
    45    24    25    1
    46    24    26    1
    47    24    27    1
    48    28    46    1
    49    29    47    1
    50    29    48    1
    51    30    49    1
@<TRIPOS>SUBSTRUCTURE
     1 ZINC000536173632        1 TEMP              0 ****  ****    0 ROOT


##########                                Name:    ZINC000425987417
##########                DOCK_Rotatable_Bonds:                   9
##########                         Heavy_Atoms:                  25
##########                    Molecular_Weight:             357.419
##########                DOCK_Rotatable_Bonds:                   9
##########                       Formal_Charge:         -0.00999992
##########                     HBond_Acceptors:                   7
##########                        HBond_Donors:                   1
##########                         Heavy_Atoms:                  25
##########                          Grid_Score:          -30.618668
##########                     Grid_vdw_energy:          -30.185745
##########                      Grid_es_energy:           -0.432922
##########           Internal_energy_repulsive:           14.220016

@<TRIPOS>MOLECULE
ZINC000425987417
 51 52 1 0 0
SMALL
USER_CHARGES


@<TRIPOS>ATOM
      1 C1          2.2844    1.3755   48.2188 C.3     1  ZINC000425987417   -0.1500
      2 C2          1.4353    2.2341   47.2791 C.3     1  ZINC000425987417    0.0400
      3 N3          0.0147    1.9151   47.4740 N.3     1  ZINC000425987417   -0.5300
      4 C4         -0.5192    2.5944   48.6621 C.3     1  ZINC000425987417    0.0400
      5 C5         -0.8424    1.5580   49.7401 C.3     1  ZINC000425987417    0.1400
      6 N6         -2.2816    1.5703   50.0135 N.am    1  ZINC000425987417   -0.7500
      7 C7         -2.7962    2.4699   50.8752 C.2     1  ZINC000425987417    0.7200
      8 O8         -2.0659    3.2712   51.4254 O.2     1  ZINC000425987417   -0.5800
      9 N9         -4.1202    2.4812   51.1267 N.am    1  ZINC000425987417   -0.6200
     10 C10        -4.7135    3.4507   52.0624 C.3     1  ZINC000425987417    0.1300
     11 C11        -5.2946    2.6709   53.2409 C.3     1  ZINC000425987417   -0.1000
     12 C12        -6.1206    1.5076   52.7588 C.ar    1  ZINC000425987417   -0.0600
     13 C13        -7.0466    0.9653   53.6412 C.ar    1  ZINC000425987417   -0.1200
     14 C14        -7.8285   -0.1076   53.2663 C.ar    1  ZINC000425987417   -0.1100
     15 C15        -7.6904   -0.6508   52.0027 C.ar    1  ZINC000425987417   -0.1200
     16 C16        -6.7737   -0.1120   51.1230 C.ar    1  ZINC000425987417   -0.1100
     17 C17        -5.9906    0.9711   51.4970 C.ar    1  ZINC000425987417   -0.0900
     18 C18        -5.0286    1.5319   50.4744 C.3     1  ZINC000425987417    0.1800
     19 H19        -4.4500    0.7186   50.0365 H       1  ZINC000425987417    0.0900
     20 C20        -5.8152    2.2472   49.3741 C.3     1  ZINC000425987417   -0.1600
     21 C21        -0.7694    2.2517   46.2782 C.3     1  ZINC000425987417    0.0500
     22 C22        -1.6441    1.0583   45.8892 C.3     1  ZINC000425987417   -0.1600
     23 C23        -0.8213    0.0723   45.0576 C.3     1  ZINC000425987417    0.4500
     24 F24         0.2357   -0.4208   45.8302 F       1  ZINC000425987417   -0.1800
     25 F25        -1.6367   -0.9894   44.6513 F       1  ZINC000425987417   -0.1800
     26 F26        -0.3102    0.7254   43.9310 F       1  ZINC000425987417   -0.1900
     27 H27         2.1502    0.3228   47.9698 H       1  ZINC000425987417    0.0500
     28 H28         3.3347    1.6444   48.1069 H       1  ZINC000425987417    0.0600
     29 H29         1.9730    1.5478   49.2490 H       1  ZINC000425987417    0.0700
     30 H30         1.6043    3.2883   47.4980 H       1  ZINC000425987417    0.0800
     31 H31         1.7155    2.0279   46.2461 H       1  ZINC000425987417    0.0400
     32 H32         0.2227    3.2961   49.0434 H       1  ZINC000425987417    0.0500
     33 H33        -1.4268    3.1353   48.3942 H       1  ZINC000425987417    0.0800
     34 H34        -0.5470    0.5681   49.3924 H       1  ZINC000425987417    0.0800
     35 H35        -0.2972    1.8004   50.6523 H       1  ZINC000425987417    0.0700
     36 H36        -2.8641    0.9309   49.5744 H       1  ZINC000425987417    0.3900
     37 H37        -3.9454    4.1377   52.4177 H       1  ZINC000425987417    0.1000
     38 H38        -5.5054    4.0084   51.5627 H       1  ZINC000425987417    0.0700
     39 H39        -4.4796    2.2991   53.8617 H       1  ZINC000425987417    0.0800
     40 H40        -5.9228    3.3347   53.8351 H       1  ZINC000425987417    0.0900
     41 H41        -7.1549    1.3871   54.6294 H       1  ZINC000425987417    0.1200
     42 H42        -8.5464   -0.5224   53.9584 H       1  ZINC000425987417    0.1200
     43 H43        -8.2969   -1.4934   51.7054 H       1  ZINC000425987417    0.1200
     44 H44        -6.6649   -0.5364   50.1359 H       1  ZINC000425987417    0.1200
     45 H45        -6.3953    3.0596   49.8117 H       1  ZINC000425987417    0.0700
     46 H46        -5.1222    2.6518   48.6365 H       1  ZINC000425987417    0.0600
     47 H47        -6.4886    1.5397   48.8903 H       1  ZINC000425987417    0.0700
     48 H48        -1.4031    3.1130   46.4898 H       1  ZINC000425987417    0.0500
     49 H49        -0.0943    2.4905   45.4565 H       1  ZINC000425987417    0.0900
     50 H50        -2.0033    0.5619   46.7908 H       1  ZINC000425987417    0.1200
     51 H51        -2.4945    1.4068   45.3031 H       1  ZINC000425987417    0.1100
@<TRIPOS>BOND
     1     1     2    1
     2     1    27    1
     3     1    28    1
     4     1    29    1
     5     2     3    1
     6     2    30    1
     7     2    31    1
     8     3     4    1
     9     3    21    1
    10     4     5    1
    11     4    32    1
    12     4    33    1
    13     5     6    1
    14     5    34    1
    15     5    35    1
    16     6     7   am
    17     6    36    1
    18     7     8    2
    19     7     9   am
    20     9    18    1
    21     9    10    1
    22    10    11    1
    23    10    37    1
    24    10    38    1
    25    11    12    1
    26    11    39    1
    27    11    40    1
    28    12    17   ar
    29    12    13   ar
    30    13    14   ar
    31    13    41    1
    32    14    15   ar
    33    14    42    1
    34    15    16   ar
    35    15    43    1
    36    16    17   ar
    37    16    44    1
    38    17    18    1
    39    18    19    1
    40    18    20    1
    41    20    45    1
    42    20    46    1
    43    20    47    1
    44    21    22    1
    45    21    48    1
    46    21    49    1
    47    22    23    1
    48    22    50    1
    49    22    51    1
    50    23    24    1
    51    23    25    1
    52    23    26    1
@<TRIPOS>SUBSTRUCTURE
     1 ZINC000425987417        1 TEMP              0 ****  ****    0 ROOT


##########                                Name:    ZINC000460163972
##########                DOCK_Rotatable_Bonds:                   7
##########                         Heavy_Atoms:                  28
##########                    Molecular_Weight:             408.469
##########                DOCK_Rotatable_Bonds:                   7
##########                       Formal_Charge:          -0.0100001
##########                     HBond_Acceptors:                   8
##########                        HBond_Donors:                   2
##########                         Heavy_Atoms:                  28
##########                          Grid_Score:          -30.606428
##########                     Grid_vdw_energy:          -31.480413
##########                      Grid_es_energy:            0.873985
##########           Internal_energy_repulsive:           51.127178

@<TRIPOS>MOLECULE
ZINC000460163972
 50 52 1 0 0
SMALL
USER_CHARGES


@<TRIPOS>ATOM
      1 C1        -14.0302   -4.7699   57.2276 C.3     1  ZINC000460163972   -0.1400
      2 C2        -13.0553   -3.7496   57.7563 C.ar    1  ZINC000460163972    0.0100
      3 C3        -11.8202   -3.5986   57.1534 C.ar    1  ZINC000460163972   -0.1300
      4 C4        -10.9243   -2.6643   57.6355 C.ar    1  ZINC000460163972   -0.0600
      5 C5        -11.2653   -1.8761   58.7265 C.ar    1  ZINC000460163972    0.1100
      6 N6        -10.3603   -0.9284   59.2171 N.am    1  ZINC000460163972   -0.6700
      7 C7         -9.3131   -1.3225   59.9686 C.2     1  ZINC000460163972    0.5200
      8 O8         -9.1553   -2.4986   60.2196 O.2     1  ZINC000460163972   -0.5100
      9 C9         -8.3383   -0.3019   60.4969 C.3     1  ZINC000460163972   -0.0700
     10 H10        -7.3709   -0.7758   60.6638 H       1  ZINC000460163972    0.1200
     11 C11        -8.1831    0.8298   59.4791 C.3     1  ZINC000460163972   -0.1500
     12 C12        -8.8538    0.2590   61.7972 C.ar    1  ZINC000460163972   -0.0600
     13 C13        -9.7193    1.3365   61.7892 C.ar    1  ZINC000460163972   -0.0700
     14 C14       -10.1935    1.8530   62.9808 C.ar    1  ZINC000460163972   -0.1200
     15 C15        -9.8021    1.2907   64.1830 C.ar    1  ZINC000460163972    0.0700
     16 F16       -10.2654    1.7945   65.3479 F       1  ZINC000460163972   -0.1300
     17 C17        -8.9340    0.2092   64.1910 C.ar    1  ZINC000460163972    0.0700
     18 F18        -8.5503   -0.3415   65.3635 F       1  ZINC000460163972   -0.1300
     19 C19        -8.4649   -0.3084   62.9965 C.ar    1  ZINC000460163972   -0.1200
     20 C20       -12.5070   -2.0300   59.3297 C.ar    1  ZINC000460163972    0.0000
     21 C21       -12.8814   -1.1762   60.5137 C.3     1  ZINC000460163972   -0.1500
     22 C22       -13.4000   -2.9625   58.8399 C.ar    1  ZINC000460163972   -0.6700
     23 S23       -14.9757   -3.1580   59.6039 S.o2    1  ZINC000460163972    2.7000
     24 O24       -15.8608   -3.6101   58.5883 O.2     1  ZINC000460163972   -0.9500
     25 O25       -14.7501   -3.8710   60.8122 O.2     1  ZINC000460163972   -0.9500
     26 N26       -15.4986   -1.6490   60.0420 N.am    1  ZINC000460163972   -1.0900
     27 C27       -15.6863   -0.6141   59.0222 C.3     1  ZINC000460163972    0.0800
     28 C28       -17.0230   -0.5898   58.2781 C.3     1  ZINC000460163972   -0.1800
     29 C29       -16.7048    0.4895   59.3148 C.3     1  ZINC000460163972   -0.1900
     30 H30       -14.7235   -4.2872   56.5388 H       1  ZINC000460163972    0.1000
     31 H31       -13.4857   -5.5557   56.7039 H       1  ZINC000460163972    0.0800
     32 H32       -14.5868   -5.2048   58.0578 H       1  ZINC000460163972    0.0700
     33 H33       -11.5556   -4.2120   56.3048 H       1  ZINC000460163972    0.1400
     34 H34        -9.9594   -2.5473   57.1645 H       1  ZINC000460163972    0.1600
     35 H35       -10.4864    0.0121   59.0164 H       1  ZINC000460163972    0.4100
     36 H36        -7.4780    1.5679   59.8613 H       1  ZINC000460163972    0.0800
     37 H37        -7.8102    0.4240   58.5386 H       1  ZINC000460163972    0.0700
     38 H38        -9.1504    1.3036   59.3122 H       1  ZINC000460163972    0.0700
     39 H39       -10.0251    1.7759   60.8513 H       1  ZINC000460163972    0.1400
     40 H40       -10.8692    2.6954   62.9734 H       1  ZINC000460163972    0.1500
     41 H41        -7.7891   -1.1508   63.0013 H       1  ZINC000460163972    0.1500
     42 H42       -13.4719   -0.3247   60.1755 H       1  ZINC000460163972    0.1000
     43 H43       -13.4669   -1.7678   61.2176 H       1  ZINC000460163972    0.1000
     44 H44       -11.9763   -0.8186   61.0046 H       1  ZINC000460163972    0.0700
     45 H45       -15.6806   -1.4504   60.9739 H       1  ZINC000460163972    0.4200
     46 H46       -14.7929   -0.3388   58.4618 H       1  ZINC000460163972    0.1300
     47 H47       -17.0091   -0.2986   57.2279 H       1  ZINC000460163972    0.1100
     48 H48       -17.7627   -1.3438   58.5474 H       1  ZINC000460163972    0.1000
     49 H49       -17.2351    0.4456   60.2661 H       1  ZINC000460163972    0.1000
     50 H50       -16.4815    1.4909   58.9466 H       1  ZINC000460163972    0.1000
@<TRIPOS>BOND
     1     1     2    1
     2     1    30    1
     3     1    31    1
     4     1    32    1
     5     2    22   ar
     6     2     3   ar
     7     3     4   ar
     8     3    33    1
     9     4     5   ar
    10     4    34    1
    11     5     6    1
    12     5    20   ar
    13     6     7   am
    14     6    35    1
    15     7     8    2
    16     7     9    1
    17     9    10    1
    18     9    11    1
    19     9    12    1
    20    11    36    1
    21    11    37    1
    22    11    38    1
    23    12    19   ar
    24    12    13   ar
    25    13    14   ar
    26    13    39    1
    27    14    15   ar
    28    14    40    1
    29    15    16    1
    30    15    17   ar
    31    17    18    1
    32    17    19   ar
    33    19    41    1
    34    20    21    1
    35    20    22   ar
    36    21    42    1
    37    21    43    1
    38    21    44    1
    39    22    23    1
    40    23    24    2
    41    23    25    2
    42    23    26   am
    43    26    27    1
    44    26    45    1
    45    27    29    1
    46    27    28    1
    47    27    46    1
    48    28    29    1
    49    28    47    1
    50    28    48    1
    51    29    49    1
    52    29    50    1
@<TRIPOS>SUBSTRUCTURE
     1 ZINC000460163972        1 TEMP              0 ****  ****    0 ROOT


##########                                Name:    ZINC001087843226
##########                DOCK_Rotatable_Bonds:                   6
##########                         Heavy_Atoms:                  27
##########                    Molecular_Weight:             368.479
##########                DOCK_Rotatable_Bonds:                   6
##########                       Formal_Charge:        -4.47035e-07
##########                     HBond_Acceptors:                   6
##########                        HBond_Donors:                   1
##########                         Heavy_Atoms:                  27
##########                          Grid_Score:          -30.604895
##########                     Grid_vdw_energy:          -30.480698
##########                      Grid_es_energy:           -0.124198
##########           Internal_energy_repulsive:           38.698975

@<TRIPOS>MOLECULE
ZINC001087843226
 55 58 1 0 0
SMALL
USER_CHARGES


@<TRIPOS>ATOM
      1 C1         -7.4031   -0.7910   51.9467 C.3     1  ZINC001087843226   -0.1500
      2 C2         -6.5669    0.4867   51.8521 C.3     1  ZINC001087843226   -0.1500
      3 C3         -6.1447    0.9250   53.2558 C.3     1  ZINC001087843226    0.0700
      4 H4         -5.6400    0.1037   53.7645 H       1  ZINC001087843226    0.1000
      5 C5         -7.3846    1.3608   54.0648 C.3     1  ZINC001087843226    0.1300
      6 H6         -8.1944    1.6583   53.3986 H       1  ZINC001087843226    0.1000
      7 N7         -7.8216    0.2877   54.9613 N.am    1  ZINC001087843226   -0.7200
      8 C8         -9.1160    0.1998   55.3264 C.2     1  ZINC001087843226    0.5600
      9 O9         -9.9205    1.0118   54.9130 O.2     1  ZINC001087843226   -0.5300
     10 C10        -9.5573   -0.8842   56.2297 C.ar    1  ZINC001087843226   -0.1400
     11 C11       -10.2640   -1.9731   55.7202 C.ar    1  ZINC001087843226   -0.0800
     12 C12       -10.6731   -2.9817   56.5683 C.ar    1  ZINC001087843226   -0.1300
     13 C13       -10.3830   -2.9125   57.9179 C.ar    1  ZINC001087843226   -0.0400
     14 C14       -10.8336   -4.0187   58.8369 C.3     1  ZINC001087843226   -0.1200
     15 C15        -9.6805   -1.8338   58.4330 C.ar    1  ZINC001087843226   -0.1100
     16 C16        -9.2617   -0.8217   57.5948 C.ar    1  ZINC001087843226   -0.0300
     17 C17        -8.5231    0.2323   58.3914 C.3     1  ZINC001087843226   -0.0800
     18 C18        -8.9133   -0.0265   59.8622 C.3     1  ZINC001087843226   -0.1200
     19 C19        -9.2480   -1.5348   59.8528 C.3     1  ZINC001087843226   -0.0800
     20 C20        -6.8641    2.5783   54.8733 C.3     1  ZINC001087843226   -0.1400
     21 C21        -5.8868    3.2298   53.8634 C.3     1  ZINC001087843226    0.0400
     22 N22        -5.2447    2.0896   53.1683 N.3     1  ZINC001087843226   -0.5100
     23 C23        -4.9514    2.4240   51.7682 C.3     1  ZINC001087843226    0.1100
     24 C24        -4.0722    3.6469   51.7174 C.2     1  ZINC001087843226    0.0800
     25 N25        -4.0698    4.6071   52.5932 N.2     1  ZINC001087843226   -0.2700
     26 O26        -3.1031    5.5586   52.1774 O.3     1  ZINC001087843226    0.0300
     27 N27        -2.5421    5.0594   50.9735 N.2     1  ZINC001087843226   -0.2800
     28 C28        -3.1205    3.9246   50.7162 C.2     1  ZINC001087843226    0.0900
     29 C29        -2.8268    3.0474   49.5265 C.3     1  ZINC001087843226   -0.0900
     30 H30        -7.7613   -1.0651   50.9543 H       1  ZINC001087843226    0.0600
     31 H31        -6.7895   -1.5980   52.3471 H       1  ZINC001087843226    0.0600
     32 H32        -8.2543   -0.6204   52.6059 H       1  ZINC001087843226    0.0600
     33 H33        -5.6793    0.2963   51.2486 H       1  ZINC001087843226    0.0800
     34 H34        -7.1594    1.2752   51.3881 H       1  ZINC001087843226    0.0700
     35 H35        -7.1793   -0.3596   55.2921 H       1  ZINC001087843226    0.4000
     36 H36       -10.4907   -2.0267   54.6657 H       1  ZINC001087843226    0.1300
     37 H37       -11.2211   -3.8260   56.1771 H       1  ZINC001087843226    0.1300
     38 H38       -10.0579   -4.7823   58.8938 H       1  ZINC001087843226    0.0800
     39 H39       -11.0173   -3.6125   59.8315 H       1  ZINC001087843226    0.0700
     40 H40       -11.7514   -4.4613   58.4499 H       1  ZINC001087843226    0.0700
     41 H41        -7.4467    0.1204   58.2602 H       1  ZINC001087843226    0.0800
     42 H42        -8.8406    1.2291   58.0855 H       1  ZINC001087843226    0.0900
     43 H43        -8.0744    0.1782   60.5274 H       1  ZINC001087843226    0.0800
     44 H44        -9.7847    0.5655   60.1418 H       1  ZINC001087843226    0.0700
     45 H45       -10.0631   -1.7456   60.5451 H       1  ZINC001087843226    0.0800
     46 H46        -8.3665   -2.1194   60.1159 H       1  ZINC001087843226    0.0800
     47 H47        -7.6786    3.2584   55.1227 H       1  ZINC001087843226    0.0800
     48 H48        -6.3388    2.2546   55.7718 H       1  ZINC001087843226    0.0800
     49 H49        -6.4331    3.8502   53.1528 H       1  ZINC001087843226    0.0600
     50 H50        -5.1379    3.8227   54.3886 H       1  ZINC001087843226    0.0800
     51 H51        -4.4378    1.5874   51.2947 H       1  ZINC001087843226    0.1200
     52 H52        -5.8835    2.6244   51.2397 H       1  ZINC001087843226    0.0700
     53 H53        -2.1010    2.2844   49.8080 H       1  ZINC001087843226    0.1000
     54 H54        -3.7470    2.5678   49.1927 H       1  ZINC001087843226    0.0900
     55 H55        -2.4201    3.6554   48.7185 H       1  ZINC001087843226    0.0900
@<TRIPOS>BOND
     1     1     2    1
     2     1    30    1
     3     1    31    1
     4     1    32    1
     5     2     3    1
     6     2    33    1
     7     2    34    1
     8     3     4    1
     9     3    22    1
    10     3     5    1
    11     5     6    1
    12     5     7    1
    13     5    20    1
    14     7     8   am
    15     7    35    1
    16     8     9    2
    17     8    10    1
    18    10    16   ar
    19    10    11   ar
    20    11    12   ar
    21    11    36    1
    22    12    13   ar
    23    12    37    1
    24    13    14    1
    25    13    15   ar
    26    14    38    1
    27    14    39    1
    28    14    40    1
    29    15    19    1
    30    15    16   ar
    31    16    17    1
    32    17    18    1
    33    17    41    1
    34    17    42    1
    35    18    19    1
    36    18    43    1
    37    18    44    1
    38    19    45    1
    39    19    46    1
    40    20    21    1
    41    20    47    1
    42    20    48    1
    43    21    22    1
    44    21    49    1
    45    21    50    1
    46    22    23    1
    47    23    24    1
    48    23    51    1
    49    23    52    1
    50    24    28    1
    51    24    25    2
    52    25    26    1
    53    26    27    1
    54    27    28    2
    55    28    29    1
    56    29    53    1
    57    29    54    1
    58    29    55    1
@<TRIPOS>SUBSTRUCTURE
     1 ZINC001087843226        1 TEMP              0 ****  ****    0 ROOT


##########                                Name:    ZINC000458730620
##########                DOCK_Rotatable_Bonds:                   9
##########                         Heavy_Atoms:                  25
##########                    Molecular_Weight:              375.44
##########                DOCK_Rotatable_Bonds:                   9
##########                       Formal_Charge:        -1.86265e-07
##########                     HBond_Acceptors:                   9
##########                        HBond_Donors:                   3
##########                         Heavy_Atoms:                  25
##########                          Grid_Score:          -30.595030
##########                     Grid_vdw_energy:          -29.893547
##########                      Grid_es_energy:           -0.701483
##########           Internal_energy_repulsive:           52.869141

@<TRIPOS>MOLECULE
ZINC000458730620
 48 49 1 0 0
SMALL
USER_CHARGES


@<TRIPOS>ATOM
      1 C1         -0.4915    2.5781   50.2536 C.3     1  ZINC000458730620   -0.1600
      2 C2         -1.8373    2.3245   49.5713 C.3     1  ZINC000458730620    0.2000
      3 C3         -2.1657    0.8313   49.6306 C.3     1  ZINC000458730620   -0.1600
      4 N4         -2.8846    3.0825   50.2603 N.am    1  ZINC000458730620   -0.7400
      5 C5         -4.1443    3.0804   49.7808 C.2     1  ZINC000458730620    0.7100
      6 O6         -4.4111    2.4506   48.7755 O.2     1  ZINC000458730620   -0.5800
      7 N7         -5.1081    3.7765   50.4156 N.am    1  ZINC000458730620   -0.7500
      8 C8         -6.4776    3.7727   49.8954 C.3     1  ZINC000458730620    0.1300
      9 C9         -7.3547    2.8789   50.7745 C.3     1  ZINC000458730620    0.1000
     10 N10        -7.0115    1.4743   50.5387 N.am    1  ZINC000458730620   -1.1100
     11 S11        -6.2478    0.5992   51.7192 S.o2    1  ZINC000458730620    2.7000
     12 O12        -6.1931   -0.7418   51.2523 O.2     1  ZINC000458730620   -0.9400
     13 O13        -5.0934    1.3421   52.0859 O.2     1  ZINC000458730620   -0.9400
     14 C14        -7.3041    0.5925   53.1293 C.ar    1  ZINC000458730620   -0.7300
     15 C15        -6.8541    1.1034   54.3319 C.ar    1  ZINC000458730620    0.0400
     16 C16        -7.6819    1.0993   55.4388 C.ar    1  ZINC000458730620   -0.1800
     17 C17        -8.9630    0.5832   55.3439 C.ar    1  ZINC000458730620    0.1900
     18 F18        -9.7720    0.5796   56.4260 F       1  ZINC000458730620   -0.1200
     19 C19        -9.4150    0.0710   54.1398 C.ar    1  ZINC000458730620   -0.2100
     20 C20        -8.5871    0.0805   53.0307 C.ar    1  ZINC000458730620    0.2200
     21 F21        -9.0269   -0.4189   51.8550 F       1  ZINC000458730620   -0.1100
     22 C22        -1.7609    2.7724   48.1103 C.3     1  ZINC000458730620   -0.1100
     23 C23        -0.4000    2.4932   47.4509 C.3     1  ZINC000458730620   -0.1400
     24 C24        -1.1823    2.0888   46.1902 C.3     1  ZINC000458730620   -0.1400
     25 C25        -2.3593    1.7569   47.1226 C.3     1  ZINC000458730620   -0.1400
     26 H26         0.2768    1.9669   49.7800 H       1  ZINC000458730620    0.0600
     27 H27        -0.2282    3.6315   50.1573 H       1  ZINC000458730620    0.0500
     28 H28        -0.5643    2.3168   51.3092 H       1  ZINC000458730620    0.0800
     29 H29        -2.2201    0.5123   50.6714 H       1  ZINC000458730620    0.0800
     30 H30        -3.1244    0.6506   49.1446 H       1  ZINC000458730620    0.0500
     31 H31        -1.3864    0.2673   49.1179 H       1  ZINC000458730620    0.0600
     32 H32        -2.6716    3.5859   51.0616 H       1  ZINC000458730620    0.3900
     33 H33        -4.8950    4.2799   51.2169 H       1  ZINC000458730620    0.4000
     34 H34        -6.8719    4.7888   49.9029 H       1  ZINC000458730620    0.0800
     35 H35        -6.4775    3.3905   48.8746 H       1  ZINC000458730620    0.0800
     36 H36        -7.1859    3.1230   51.8234 H       1  ZINC000458730620    0.0900
     37 H37        -8.4035    3.0432   50.5275 H       1  ZINC000458730620    0.0700
     38 H38        -7.2317    1.0569   49.6913 H       1  ZINC000458730620    0.4300
     39 H39        -5.8547    1.5059   54.4069 H       1  ZINC000458730620    0.1700
     40 H40        -7.3290    1.4985   56.3782 H       1  ZINC000458730620    0.1600
     41 H41       -10.4142   -0.3319   54.0648 H       1  ZINC000458730620    0.1600
     42 H42        -2.1195    3.7907   47.9605 H       1  ZINC000458730620    0.1100
     43 H43         0.2118    3.3854   47.3176 H       1  ZINC000458730620    0.0700
     44 H44         0.1463    1.6687   47.9090 H       1  ZINC000458730620    0.0800
     45 H45        -1.3817    2.9205   45.5145 H       1  ZINC000458730620    0.0800
     46 H46        -0.7697    1.2179   45.6809 H       1  ZINC000458730620    0.0700
     47 H47        -2.3487    0.7311   47.4910 H       1  ZINC000458730620    0.0800
     48 H48        -3.3292    2.0547   46.7243 H       1  ZINC000458730620    0.0700
@<TRIPOS>BOND
     1     1     2    1
     2     1    26    1
     3     1    27    1
     4     1    28    1
     5     2     3    1
     6     2     4    1
     7     2    22    1
     8     3    29    1
     9     3    30    1
    10     3    31    1
    11     4     5   am
    12     4    32    1
    13     5     6    2
    14     5     7   am
    15     7     8    1
    16     7    33    1
    17     8     9    1
    18     8    34    1
    19     8    35    1
    20     9    10    1
    21     9    36    1
    22     9    37    1
    23    10    11   am
    24    10    38    1
    25    11    12    2
    26    11    13    2
    27    11    14    1
    28    14    20   ar
    29    14    15   ar
    30    15    16   ar
    31    15    39    1
    32    16    17   ar
    33    16    40    1
    34    17    18    1
    35    17    19   ar
    36    19    20   ar
    37    19    41    1
    38    20    21    1
    39    22    25    1
    40    22    23    1
    41    22    42    1
    42    23    24    1
    43    23    43    1
    44    23    44    1
    45    24    25    1
    46    24    45    1
    47    24    46    1
    48    25    47    1
    49    25    48    1
@<TRIPOS>SUBSTRUCTURE
     1 ZINC000458730620        1 TEMP              0 ****  ****    0 ROOT


##########                                Name:    ZINC000805177769
##########                DOCK_Rotatable_Bonds:                  10
##########                         Heavy_Atoms:                  30
##########                    Molecular_Weight:             417.548
##########                DOCK_Rotatable_Bonds:                  10
##########                       Formal_Charge:           0.0199995
##########                     HBond_Acceptors:                   7
##########                        HBond_Donors:                   1
##########                         Heavy_Atoms:                  30
##########                          Grid_Score:          -30.525444
##########                     Grid_vdw_energy:          -30.010120
##########                      Grid_es_energy:           -0.515323
##########           Internal_energy_repulsive:           31.403643

@<TRIPOS>MOLECULE
ZINC000805177769
 65 66 1 0 0
SMALL
USER_CHARGES


@<TRIPOS>ATOM
      1 C1         -9.0705   -0.0916   53.9814 C.3     1  ZINC000805177769   -0.1200
      2 C2         -8.9598   -0.0429   55.4836 C.ar    1  ZINC000805177769   -0.0800
      3 C3         -9.5905   -1.0012   56.2544 C.ar    1  ZINC000805177769   -0.1200
      4 C4         -9.4889   -0.9565   57.6326 C.ar    1  ZINC000805177769   -0.1100
      5 C5         -8.7564    0.0462   58.2394 C.ar    1  ZINC000805177769   -0.0900
      6 C6         -8.6461    0.0952   59.7415 C.3     1  ZINC000805177769   -0.0900
      7 C7         -9.8251    0.8848   60.3139 C.3     1  ZINC000805177769    0.1500
      8 H8        -10.2958    1.4627   59.5186 H       1  ZINC000805177769    0.1000
      9 C9         -9.3224    1.8331   61.4043 C.3     1  ZINC000805177769   -0.1700
     10 N10       -10.8026   -0.0437   60.8869 N.am    1  ZINC000805177769   -0.6900
     11 C11       -12.1170    0.1247   60.6406 C.2     1  ZINC000805177769    0.5100
     12 O12       -12.4907    1.0464   59.9455 O.2     1  ZINC000805177769   -0.5100
     13 C13       -13.1140   -0.8237   61.2237 C.2     1  ZINC000805177769    0.5200
     14 O14       -13.4694   -0.6971   62.3770 O.2     1  ZINC000805177769   -0.5200
     15 N15       -13.6183   -1.8196   60.4685 N.am    1  ZINC000805177769   -0.5900
     16 C16       -14.6012   -2.8185   60.9130 C.3     1  ZINC000805177769    0.1100
     17 C17       -14.9004   -3.7348   59.7078 C.3     1  ZINC000805177769   -0.1500
     18 C18       -14.4968   -2.8558   58.4945 C.3     1  ZINC000805177769    0.1500
     19 H19       -15.2998   -2.1699   58.2246 H       1  ZINC000805177769    0.1200
     20 N20       -14.1119   -3.6856   57.3501 N.am    1  ZINC000805177769   -0.5900
     21 C21       -13.1352   -4.7639   57.5226 C.3     1  ZINC000805177769    0.0800
     22 C22       -14.6560   -3.4568   56.1385 C.2     1  ZINC000805177769    0.6600
     23 O23       -14.3354   -4.1439   55.1889 O.2     1  ZINC000805177769   -0.5600
     24 O24       -15.5545   -2.4667   55.9802 O.3     1  ZINC000805177769   -0.3600
     25 C25       -15.3100   -1.5200   54.9066 C.3     1  ZINC000805177769    0.1400
     26 C26       -16.0602   -0.2178   55.1941 C.3     1  ZINC000805177769   -0.1800
     27 C27       -13.8101   -1.2340   54.8107 C.3     1  ZINC000805177769   -0.1400
     28 C28       -15.8021   -2.1108   53.5839 C.3     1  ZINC000805177769   -0.1800
     29 C29       -13.2805   -2.0838   59.0580 C.3     1  ZINC000805177769    0.0900
     30 C30        -8.1244    1.0040   57.4683 C.ar    1  ZINC000805177769   -0.0800
     31 C31        -7.3253    2.0971   58.1299 C.3     1  ZINC000805177769   -0.1200
     32 C32        -8.2227    0.9571   56.0904 C.ar    1  ZINC000805177769   -0.1200
     33 H33        -8.2585   -0.6956   53.5767 H       1  ZINC000805177769    0.0700
     34 H34       -10.0266   -0.5340   53.7017 H       1  ZINC000805177769    0.0700
     35 H35        -9.0064    0.9195   53.5794 H       1  ZINC000805177769    0.0700
     36 H36       -10.1628   -1.7847   55.7802 H       1  ZINC000805177769    0.1200
     37 H37        -9.9824   -1.7050   58.2349 H       1  ZINC000805177769    0.1200
     38 H38        -8.6605   -0.9191   60.1402 H       1  ZINC000805177769    0.0800
     39 H39        -7.7122    0.5825   60.0216 H       1  ZINC000805177769    0.0900
     40 H40        -8.8517    1.2552   62.1997 H       1  ZINC000805177769    0.0600
     41 H41        -8.5951    2.5240   60.9779 H       1  ZINC000805177769    0.0700
     42 H42       -10.1622    2.3957   61.8121 H       1  ZINC000805177769    0.0600
     43 H43       -10.5040   -0.7799   61.4436 H       1  ZINC000805177769    0.4100
     44 H44       -14.1874   -3.4068   61.7321 H       1  ZINC000805177769    0.0900
     45 H45       -15.5154   -2.3208   61.2362 H       1  ZINC000805177769    0.0900
     46 H46       -14.2916   -4.6379   59.7494 H       1  ZINC000805177769    0.0900
     47 H47       -15.9606   -3.9846   59.6672 H       1  ZINC000805177769    0.0900
     48 H48       -13.6545   -5.6860   57.7838 H       1  ZINC000805177769    0.0600
     49 H49       -12.5848   -4.9078   56.5930 H       1  ZINC000805177769    0.0800
     50 H50       -12.4399   -4.5002   58.3196 H       1  ZINC000805177769    0.0800
     51 H51       -15.7096    0.2030   56.1365 H       1  ZINC000805177769    0.0600
     52 H52       -15.8766    0.4927   54.3882 H       1  ZINC000805177769    0.0700
     53 H53       -17.1288   -0.4217   55.2624 H       1  ZINC000805177769    0.0900
     54 H54       -13.2756   -2.1617   54.6060 H       1  ZINC000805177769    0.0700
     55 H55       -13.6265   -0.5234   54.0049 H       1  ZINC000805177769    0.0800
     56 H56       -13.4595   -0.8131   55.7532 H       1  ZINC000805177769    0.0700
     57 H57       -16.8707   -2.3145   53.6521 H       1  ZINC000805177769    0.0900
     58 H58       -15.6185   -1.4002   52.7780 H       1  ZINC000805177769    0.0700
     59 H59       -15.2676   -3.0384   53.3791 H       1  ZINC000805177769    0.0600
     60 H60       -13.1408   -1.1485   58.5162 H       1  ZINC000805177769    0.0900
     61 H61       -12.3810   -2.6964   58.9972 H       1  ZINC000805177769    0.0800
     62 H62        -6.2917    1.7714   58.2469 H       1  ZINC000805177769    0.0700
     63 H63        -7.3558    2.9944   57.5119 H       1  ZINC000805177769    0.0700
     64 H64        -7.7504    2.3159   59.1094 H       1  ZINC000805177769    0.0700
     65 H65        -7.7291    1.7053   55.4880 H       1  ZINC000805177769    0.1200
@<TRIPOS>BOND
     1     1     2    1
     2     1    33    1
     3     1    34    1
     4     1    35    1
     5     2    32   ar
     6     2     3   ar
     7     3     4   ar
     8     3    36    1
     9     4     5   ar
    10     4    37    1
    11     5     6    1
    12     5    30   ar
    13     6     7    1
    14     6    38    1
    15     6    39    1
    16     7     8    1
    17     7     9    1
    18     7    10    1
    19     9    40    1
    20     9    41    1
    21     9    42    1
    22    10    11   am
    23    10    43    1
    24    11    12    2
    25    11    13    1
    26    13    14    2
    27    13    15   am
    28    15    29    1
    29    15    16    1
    30    16    17    1
    31    16    44    1
    32    16    45    1
    33    17    18    1
    34    17    46    1
    35    17    47    1
    36    18    19    1
    37    18    20    1
    38    18    29    1
    39    20    21    1
    40    20    22   am
    41    21    48    1
    42    21    49    1
    43    21    50    1
    44    22    23    2
    45    22    24    1
    46    24    25    1
    47    25    26    1
    48    25    27    1
    49    25    28    1
    50    26    51    1
    51    26    52    1
    52    26    53    1
    53    27    54    1
    54    27    55    1
    55    27    56    1
    56    28    57    1
    57    28    58    1
    58    28    59    1
    59    29    60    1
    60    29    61    1
    61    30    31    1
    62    30    32   ar
    63    31    62    1
    64    31    63    1
    65    31    64    1
    66    32    65    1
@<TRIPOS>SUBSTRUCTURE
     1 ZINC000805177769        1 TEMP              0 ****  ****    0 ROOT


##########                                Name:    ZINC000989658617
##########                DOCK_Rotatable_Bonds:                   6
##########                         Heavy_Atoms:                  24
##########                    Molecular_Weight:             334.418
##########                DOCK_Rotatable_Bonds:                   6
##########                       Formal_Charge:          -0.0100001
##########                     HBond_Acceptors:                   7
##########                        HBond_Donors:                   2
##########                         Heavy_Atoms:                  24
##########                          Grid_Score:          -30.504414
##########                     Grid_vdw_energy:          -30.440990
##########                      Grid_es_energy:           -0.063423
##########           Internal_energy_repulsive:            9.624999

@<TRIPOS>MOLECULE
ZINC000989658617
 50 52 1 0 0
SMALL
USER_CHARGES


@<TRIPOS>ATOM
      1 C1         -3.5990    3.3659   49.5193 C.3     1  ZINC000989658617    0.0300
      2 O2         -4.5788    2.7245   48.7003 O.3     1  ZINC000989658617   -0.3700
      3 C3         -5.8748    2.6468   49.2973 C.3     1  ZINC000989658617    0.0500
      4 C4         -5.8552    1.6303   50.4097 C.2     1  ZINC000989658617    0.5300
      5 O5         -5.0045    0.7660   50.4265 O.2     1  ZINC000989658617   -0.5100
      6 N6         -6.7829    1.6818   51.3860 N.am    1  ZINC000989658617   -0.6200
      7 C7         -7.8684    2.6741   51.4882 C.3     1  ZINC000989658617    0.1000
      8 C8         -8.2319    2.7106   52.9936 C.3     1  ZINC000989658617   -0.1500
      9 C9         -8.0734    1.2185   53.3886 C.3     1  ZINC000989658617    0.1400
     10 H10        -8.9723    0.6555   53.1372 H       1  ZINC000989658617    0.1100
     11 N11        -7.7655    1.0898   54.8150 N.am    1  ZINC000989658617   -0.7100
     12 C12        -8.7590    0.8907   55.7037 C.2     1  ZINC000989658617    0.6100
     13 O13        -9.9109    0.8194   55.3217 O.2     1  ZINC000989658617   -0.5200
     14 C14        -8.4484    0.7592   57.1417 C.2     1  ZINC000989658617   -0.0100
     15 N15        -7.5589    1.4593   57.8248 N.2     1  ZINC000989658617   -0.2600
     16 N16        -7.5497    1.0835   59.0572 N.pl3   1  ZINC000989658617   -0.3700
     17 C17        -8.4483    0.1033   59.2461 C.2     1  ZINC000989658617    0.0100
     18 C18        -9.0448   -0.1301   58.0512 C.2     1  ZINC000989658617   -0.1400
     19 C19       -10.1156   -1.1598   57.8176 C.3     1  ZINC000989658617   -0.0400
     20 C20       -10.1134   -2.1345   59.0031 C.3     1  ZINC000989658617   -0.0900
     21 H21        -9.2155   -2.7513   58.9644 H       1  ZINC000989658617    0.0700
     22 C22       -11.3511   -3.0307   58.9286 C.3     1  ZINC000989658617   -0.1500
     23 C23       -10.1338   -1.3447   60.3145 C.3     1  ZINC000989658617   -0.1100
     24 C24        -8.7892   -0.6365   60.5141 C.3     1  ZINC000989658617   -0.0500
     25 C25        -6.8840    0.7538   52.5219 C.3     1  ZINC000989658617    0.1300
     26 H26        -5.9641    0.7886   53.1055 H       1  ZINC000989658617    0.0800
     27 C27        -7.1297   -0.6714   52.0224 C.3     1  ZINC000989658617   -0.1600
     28 H28        -3.9162    4.3865   49.7335 H       1  ZINC000989658617    0.0500
     29 H29        -3.4901    2.8156   50.4540 H       1  ZINC000989658617    0.0400
     30 H30        -2.6434    3.3848   48.9954 H       1  ZINC000989658617    0.0900
     31 H31        -6.1480    3.6217   49.7007 H       1  ZINC000989658617    0.0800
     32 H32        -6.6042    2.3476   48.5446 H       1  ZINC000989658617    0.0800
     33 H33        -7.5201    3.6529   51.1583 H       1  ZINC000989658617    0.0800
     34 H34        -8.7284    2.3579   50.8980 H       1  ZINC000989658617    0.0800
     35 H35        -7.5344    3.3379   53.5488 H       1  ZINC000989658617    0.0800
     36 H36        -9.2584    3.0466   53.1397 H       1  ZINC000989658617    0.1000
     37 H37        -6.8465    1.1479   55.1200 H       1  ZINC000989658617    0.4100
     38 H38        -6.9777    1.4542   59.7473 H       1  ZINC000989658617    0.4500
     39 H39       -11.0869   -0.6701   57.7463 H       1  ZINC000989658617    0.0800
     40 H40        -9.9086   -1.7025   56.8953 H       1  ZINC000989658617    0.0800
     41 H41       -11.3364   -3.5937   57.9953 H       1  ZINC000989658617    0.0600
     42 H42       -11.3496   -3.7231   59.7705 H       1  ZINC000989658617    0.0600
     43 H43       -12.2491   -2.4141   58.9669 H       1  ZINC000989658617    0.0600
     44 H44       -10.9300   -0.6013   60.2780 H       1  ZINC000989658617    0.0700
     45 H45       -10.3126   -2.0265   61.1460 H       1  ZINC000989658617    0.0800
     46 H46        -8.0137   -1.3732   60.7236 H       1  ZINC000989658617    0.0800
     47 H47        -8.8637    0.0655   61.3447 H       1  ZINC000989658617    0.0800
     48 H48        -8.0410   -0.6950   51.4249 H       1  ZINC000989658617    0.0600
     49 H49        -6.2862   -0.9926   51.4114 H       1  ZINC000989658617    0.0700
     50 H50        -7.2368   -1.3418   52.8751 H       1  ZINC000989658617    0.0700
@<TRIPOS>BOND
     1     1     2    1
     2     1    28    1
     3     1    29    1
     4     1    30    1
     5     2     3    1
     6     3     4    1
     7     3    31    1
     8     3    32    1
     9     4     5    2
    10     4     6   am
    11     6    25    1
    12     6     7    1
    13     7     8    1
    14     7    33    1
    15     7    34    1
    16     8     9    1
    17     8    35    1
    18     8    36    1
    19     9    10    1
    20     9    11    1
    21     9    25    1
    22    11    12   am
    23    11    37    1
    24    12    13    2
    25    12    14    1
    26    14    18    1
    27    14    15    2
    28    15    16    1
    29    16    17    1
    30    16    38    1
    31    17    24    1
    32    17    18    2
    33    18    19    1
    34    19    20    1
    35    19    39    1
    36    19    40    1
    37    20    21    1
    38    20    22    1
    39    20    23    1
    40    22    41    1
    41    22    42    1
    42    22    43    1
    43    23    24    1
    44    23    44    1
    45    23    45    1
    46    24    46    1
    47    24    47    1
    48    25    26    1
    49    25    27    1
    50    27    48    1
    51    27    49    1
    52    27    50    1
@<TRIPOS>SUBSTRUCTURE
     1 ZINC000989658617        1 TEMP              0 ****  ****    0 ROOT


##########                                Name:    ZINC000443394081
##########                DOCK_Rotatable_Bonds:                   8
##########                         Heavy_Atoms:                  27
##########                    Molecular_Weight:             389.878
##########                DOCK_Rotatable_Bonds:                   8
##########                       Formal_Charge:          -0.0300003
##########                     HBond_Acceptors:                   6
##########                        HBond_Donors:                   1
##########                         Heavy_Atoms:                  27
##########                          Grid_Score:          -30.468111
##########                     Grid_vdw_energy:          -30.204321
##########                      Grid_es_energy:           -0.263790
##########           Internal_energy_repulsive:           27.912716

@<TRIPOS>MOLECULE
ZINC000443394081
 51 53 1 0 0
SMALL
USER_CHARGES


@<TRIPOS>ATOM
      1 C1         -7.1544    1.4060   57.8301 C.3     1  ZINC000443394081    0.0200
      2 O2         -8.4915    1.5431   57.3448 O.3     1  ZINC000443394081   -0.3000
      3 C3         -9.0093    0.4909   56.6561 C.ar    1  ZINC000443394081    0.1000
      4 C4         -9.6861   -0.5082   57.3277 C.ar    1  ZINC000443394081   -0.1200
      5 C5        -10.2174   -1.5879   56.6167 C.ar    1  ZINC000443394081   -0.1300
      6 C6        -10.9421   -2.6581   57.3295 C.2     1  ZINC000443394081    0.5700
      7 O7        -10.4433   -3.7616   57.4387 O.2     1  ZINC000443394081   -0.4900
      8 N8        -12.1566   -2.4122   57.8594 N.am    1  ZINC000443394081   -0.6100
      9 C9        -12.8751   -1.1262   57.8011 C.3     1  ZINC000443394081    0.0900
     10 C10       -14.3702   -1.4997   57.9592 C.3     1  ZINC000443394081   -0.1300
     11 C11       -14.2939   -2.6643   58.9814 C.3     1  ZINC000443394081   -0.1000
     12 H12       -14.2338   -2.2804   59.9998 H       1  ZINC000443394081    0.0900
     13 C13       -15.4953   -3.5991   58.8276 C.3     1  ZINC000443394081   -0.1500
     14 C14       -12.9874   -3.3838   58.5857 C.3     1  ZINC000443394081    0.1400
     15 H15       -12.4620   -3.7173   59.4807 H       1  ZINC000443394081    0.0800
     16 C16       -13.3046   -4.5839   57.6912 C.3     1  ZINC000443394081    0.0600
     17 O17       -13.7405   -4.1219   56.4111 O.3     1  ZINC000443394081   -0.5400
     18 C18       -10.0616   -1.6516   55.2302 C.ar    1  ZINC000443394081   -0.1000
     19 C19        -9.3846   -0.6515   54.5660 C.ar    1  ZINC000443394081   -0.1800
     20 C20        -8.8618    0.4236   55.2711 C.ar    1  ZINC000443394081    0.1300
     21 O21        -8.1956    1.4065   54.6122 O.3     1  ZINC000443394081   -0.3000
     22 C22        -6.8263    1.1574   54.2882 C.3     1  ZINC000443394081    0.1000
     23 C23        -6.6585    1.1466   52.7906 C.ar    1  ZINC000443394081   -0.0800
     24 C24        -6.4402   -0.0464   52.1282 C.ar    1  ZINC000443394081   -0.0800
     25 C25        -6.2861   -0.0565   50.7542 C.ar    1  ZINC000443394081   -0.1100
     26 C26        -6.3498    1.1266   50.0424 C.ar    1  ZINC000443394081   -0.1000
     27 C27        -6.5680    2.3206   50.7039 C.ar    1  ZINC000443394081   -0.1100
     28 C28        -6.7285    2.3306   52.0778 C.ar    1  ZINC000443394081   -0.0300
     29 Cl29       -7.0026    3.8296   52.9092 Cl      1  ZINC000443394081   -0.0700
     30 H30        -6.8653    2.3138   58.3597 H       1  ZINC000443394081    0.1000
     31 H31        -7.1001    0.5558   58.5099 H       1  ZINC000443394081    0.0600
     32 H32        -6.4780    1.2439   56.9908 H       1  ZINC000443394081    0.0600
     33 H33        -9.8043   -0.4554   58.3999 H       1  ZINC000443394081    0.1500
     34 H34       -12.5578   -0.4771   58.6173 H       1  ZINC000443394081    0.0700
     35 H35       -12.7050   -0.6398   56.8406 H       1  ZINC000443394081    0.0800
     36 H36       -14.9413   -0.6632   58.3619 H       1  ZINC000443394081    0.0900
     37 H37       -14.7906   -1.8379   57.0122 H       1  ZINC000443394081    0.0800
     38 H38       -15.5200   -3.9949   57.8123 H       1  ZINC000443394081    0.0600
     39 H39       -15.4081   -4.4225   59.5365 H       1  ZINC000443394081    0.0600
     40 H40       -16.4137   -3.0460   59.0244 H       1  ZINC000443394081    0.0600
     41 H41       -12.4096   -5.1945   57.5717 H       1  ZINC000443394081    0.0600
     42 H42       -14.0930   -5.1806   58.1499 H       1  ZINC000443394081    0.0400
     43 H43       -14.5477   -3.5902   56.4389 H       1  ZINC000443394081    0.3700
     44 H44       -10.4712   -2.4849   54.6786 H       1  ZINC000443394081    0.1400
     45 H45        -9.2644   -0.7023   53.4940 H       1  ZINC000443394081    0.1400
     46 H46        -6.2028    1.9415   54.7180 H       1  ZINC000443394081    0.0800
     47 H47        -6.5267    0.1914   54.6944 H       1  ZINC000443394081    0.0800
     48 H48        -6.3897   -0.9711   52.6840 H       1  ZINC000443394081    0.1400
     49 H49        -6.1156   -0.9892   50.2370 H       1  ZINC000443394081    0.1300
     50 H50        -6.2286    1.1182   48.9693 H       1  ZINC000443394081    0.1300
     51 H51        -6.6178    3.2450   50.1476 H       1  ZINC000443394081    0.1400
@<TRIPOS>BOND
     1     1     2    1
     2     1    30    1
     3     1    31    1
     4     1    32    1
     5     2     3    1
     6     3    20   ar
     7     3     4   ar
     8     4     5   ar
     9     4    33    1
    10     5     6    1
    11     5    18   ar
    12     6     7    2
    13     6     8   am
    14     8    14    1
    15     8     9    1
    16     9    10    1
    17     9    34    1
    18     9    35    1
    19    10    11    1
    20    10    36    1
    21    10    37    1
    22    11    12    1
    23    11    13    1
    24    11    14    1
    25    13    38    1
    26    13    39    1
    27    13    40    1
    28    14    15    1
    29    14    16    1
    30    16    17    1
    31    16    41    1
    32    16    42    1
    33    17    43    1
    34    18    19   ar
    35    18    44    1
    36    19    20   ar
    37    19    45    1
    38    20    21    1
    39    21    22    1
    40    22    23    1
    41    22    46    1
    42    22    47    1
    43    23    28   ar
    44    23    24   ar
    45    24    25   ar
    46    24    48    1
    47    25    26   ar
    48    25    49    1
    49    26    27   ar
    50    26    50    1
    51    27    28   ar
    52    27    51    1
    53    28    29    1
@<TRIPOS>SUBSTRUCTURE
     1 ZINC000443394081        1 TEMP              0 ****  ****    0 ROOT


##########                                Name:    ZINC001058772245
##########                DOCK_Rotatable_Bonds:                  11
##########                         Heavy_Atoms:                  22
##########                    Molecular_Weight:             335.375
##########                DOCK_Rotatable_Bonds:                  11
##########                       Formal_Charge:          0.00999964
##########                     HBond_Acceptors:                   9
##########                        HBond_Donors:                   2
##########                         Heavy_Atoms:                  22
##########                          Grid_Score:          -30.466255
##########                     Grid_vdw_energy:          -29.548822
##########                      Grid_es_energy:           -0.917433
##########           Internal_energy_repulsive:           67.568680

@<TRIPOS>MOLECULE
ZINC001058772245
 41 41 1 0 0
SMALL
USER_CHARGES


@<TRIPOS>ATOM
      1 C1          0.7997    1.7465   49.0600 C.3     1  ZINC001058772245   -0.1700
      2 C2          0.4325    3.0457   48.3402 C.3     1  ZINC001058772245   -0.1400
      3 C3          1.7043    3.8454   48.0509 C.3     1  ZINC001058772245   -0.1500
      4 C4         -0.2634    2.7222   47.0433 C.2     1  ZINC001058772245    0.5300
      5 O5          0.2504    3.0254   45.9874 O.2     1  ZINC001058772245   -0.5200
      6 N6         -1.4567    2.0957   47.0568 N.am    1  ZINC001058772245   -0.5900
      7 C7         -2.1331    1.7812   45.7959 C.3     1  ZINC001058772245    0.0800
      8 C8         -1.5065    0.5288   45.1796 C.3     1  ZINC001058772245    0.0400
      9 O9         -2.0194    0.3400   43.8593 O.3     1  ZINC001058772245   -0.5700
     10 C10        -2.0773    1.7294   48.3322 C.3     1  ZINC001058772245    0.1100
     11 C11        -3.4386    2.4173   48.4532 C.3     1  ZINC001058772245    0.1000
     12 N12        -4.2746    1.6816   49.4050 N.am    1  ZINC001058772245   -0.7100
     13 C13        -5.5372    2.0866   49.6462 C.2     1  ZINC001058772245    0.6000
     14 O14        -5.9832    3.0620   49.0725 O.2     1  ZINC001058772245   -0.5300
     15 C15        -6.3771    1.3481   50.6043 C.2     1  ZINC001058772245    0.0000
     16 C16        -7.0638    1.9492   51.6020 C.2     1  ZINC001058772245   -0.2200
     17 S17        -7.9103    0.7559   52.4861 S.3     1  ZINC001058772245    0.2300
     18 C18        -7.2990   -0.4760   51.4737 C.2     1  ZINC001058772245    0.0000
     19 N19        -6.5360    0.0225   50.5656 N.2     1  ZINC001058772245   -0.4400
     20 C20        -0.5000    3.8738   49.2266 C.3     1  ZINC001058772245    0.2900
     21 F21        -0.5190    3.3330   50.5167 F       1  ZINC001058772245   -0.1900
     22 F22        -0.0408    5.1942   49.2812 F       1  ZINC001058772245   -0.2000
     23 H23         1.0322    1.9621   50.1028 H       1  ZINC001058772245    0.0800
     24 H24        -0.0406    1.0539   49.0108 H       1  ZINC001058772245    0.0700
     25 H25         1.6689    1.2978   48.5791 H       1  ZINC001058772245    0.0900
     26 H26         2.2432    3.3842   47.2233 H       1  ZINC001058772245    0.0800
     27 H27         1.4378    4.8685   47.7857 H       1  ZINC001058772245    0.0700
     28 H28         2.3381    3.8533   48.9377 H       1  ZINC001058772245    0.0900
     29 H29        -3.1913    1.6020   45.9862 H       1  ZINC001058772245    0.0900
     30 H30        -2.0246    2.6187   45.1067 H       1  ZINC001058772245    0.1200
     31 H31        -0.4239    0.6485   45.1352 H       1  ZINC001058772245    0.0600
     32 H32        -1.7513   -0.3389   45.7920 H       1  ZINC001058772245    0.0700
     33 H33        -2.9825    0.2637   43.8187 H       1  ZINC001058772245    0.3800
     34 H34        -2.2115    0.6485   48.3738 H       1  ZINC001058772245    0.1000
     35 H35        -1.4351    2.0476   49.1534 H       1  ZINC001058772245    0.0900
     36 H36        -3.2992    3.4391   48.8063 H       1  ZINC001058772245    0.0700
     37 H37        -3.9257    2.4329   47.4782 H       1  ZINC001058772245    0.0700
     38 H38        -3.9195    0.9030   49.8617 H       1  ZINC001058772245    0.4100
     39 H39        -7.0757    3.0096   51.8066 H       1  ZINC001058772245    0.1900
     40 H40        -7.5242   -1.5269   51.5789 H       1  ZINC001058772245    0.2100
     41 H41        -1.5073    3.8564   48.8104 H       1  ZINC001058772245    0.1200
@<TRIPOS>BOND
     1     1     2    1
     2     1    23    1
     3     1    24    1
     4     1    25    1
     5     2     3    1
     6     2     4    1
     7     2    20    1
     8     3    26    1
     9     3    27    1
    10     3    28    1
    11     4     5    2
    12     4     6   am
    13     6     7    1
    14     6    10    1
    15     7     8    1
    16     7    29    1
    17     7    30    1
    18     8     9    1
    19     8    31    1
    20     8    32    1
    21     9    33    1
    22    10    11    1
    23    10    34    1
    24    10    35    1
    25    11    12    1
    26    11    36    1
    27    11    37    1
    28    12    13   am
    29    12    38    1
    30    13    14    2
    31    13    15    1
    32    15    19    1
    33    15    16    2
    34    16    17    1
    35    16    39    1
    36    17    18    1
    37    18    19    2
    38    18    40    1
    39    20    21    1
    40    20    22    1
    41    20    41    1
@<TRIPOS>SUBSTRUCTURE
     1 ZINC001058772245        1 TEMP              0 ****  ****    0 ROOT


##########                                Name:    ZINC000846412382
##########                DOCK_Rotatable_Bonds:                   6
##########                         Heavy_Atoms:                  26
##########                    Molecular_Weight:             370.475
##########                DOCK_Rotatable_Bonds:                   6
##########                       Formal_Charge:               -0.03
##########                     HBond_Acceptors:                   7
##########                        HBond_Donors:                   4
##########                         Heavy_Atoms:                  26
##########                          Grid_Score:          -30.461380
##########                     Grid_vdw_energy:          -29.067944
##########                      Grid_es_energy:           -1.393436
##########           Internal_energy_repulsive:           24.642275

@<TRIPOS>MOLECULE
ZINC000846412382
 48 50 1 0 0
SMALL
USER_CHARGES


@<TRIPOS>ATOM
      1 C1         -6.2357    3.4432   51.7327 C.3     1  ZINC000846412382   -0.1400
      2 C2         -6.4511    1.9524   51.6872 C.2     1  ZINC000846412382    0.0300
      3 C3         -5.8633    1.1733   50.7704 C.2     1  ZINC000846412382   -0.2700
      4 C4         -4.9584    1.6565   49.7202 C.2     1  ZINC000846412382    0.6000
      5 O5         -5.4121    2.1761   48.7179 O.2     1  ZINC000846412382   -0.5200
      6 N6         -3.6251    1.5246   49.8664 N.am    1  ZINC000846412382   -0.7100
      7 C7         -2.7222    2.0053   48.8176 C.3     1  ZINC000846412382    0.1200
      8 H8         -3.2736    2.1099   47.8832 H       1  ZINC000846412382    0.1000
      9 C9         -2.1452    3.3628   49.2241 C.3     1  ZINC000846412382   -0.1700
     10 C10        -1.5821    1.0029   48.6274 C.3     1  ZINC000846412382    0.1700
     11 C11        -1.2296    0.9073   47.1415 C.3     1  ZINC000846412382   -0.1400
     12 O12        -1.9920   -0.2808   49.1031 O.3     1  ZINC000846412382   -0.5500
     13 C13        -0.3739    1.4633   49.4016 C.ar    1  ZINC000846412382   -0.1200
     14 C14         0.5770    2.2588   48.7901 C.ar    1  ZINC000846412382   -0.1100
     15 C15         1.6852    2.6811   49.5002 C.ar    1  ZINC000846412382   -0.1200
     16 C16         1.8423    2.3085   50.8221 C.ar    1  ZINC000846412382   -0.1200
     17 C17         0.8909    1.5137   51.4339 C.ar    1  ZINC000846412382   -0.1200
     18 C18        -0.2194    1.0949   50.7249 C.ar    1  ZINC000846412382   -0.1000
     19 S19        -6.3235   -0.5054   50.9976 S.3     1  ZINC000846412382    0.2000
     20 C20        -7.3346   -0.0931   52.3759 C.ar    1  ZINC000846412382    0.1400
     21 N21        -8.0894   -0.8541   53.1765 N.ar    1  ZINC000846412382   -0.5300
     22 C22        -8.7750   -0.3262   54.1647 C.ar    1  ZINC000846412382    0.3900
     23 C23        -9.6088   -1.2294   55.0365 C.3     1  ZINC000846412382   -0.0900
     24 N24        -8.7577    0.9693   54.4202 N.ar    1  ZINC000846412382   -0.5800
     25 C25        -8.0412    1.8060   53.6849 C.ar    1  ZINC000846412382    0.5100
     26 N26        -8.0347    3.1572   53.9661 N.pl3   1  ZINC000846412382   -0.8300
     27 C27        -7.2737    1.2888   52.6033 C.ar    1  ZINC000846412382   -0.2500
     28 H28        -5.4412    3.6740   52.4424 H       1  ZINC000846412382    0.0800
     29 H29        -5.9531    3.7999   50.7423 H       1  ZINC000846412382    0.1100
     30 H30        -7.1571    3.9340   52.0465 H       1  ZINC000846412382    0.0700
     31 H31        -3.2633    1.1115   50.6660 H       1  ZINC000846412382    0.4000
     32 H32        -1.5937    3.2580   50.1584 H       1  ZINC000846412382    0.0600
     33 H33        -1.4734    3.7204   48.4437 H       1  ZINC000846412382    0.0800
     34 H34        -2.9574    4.0769   49.3596 H       1  ZINC000846412382    0.0700
     35 H35        -0.9169    1.8864   46.7786 H       1  ZINC000846412382    0.0700
     36 H36        -0.4174    0.1932   47.0060 H       1  ZINC000846412382    0.0700
     37 H37        -2.1034    0.5743   46.5815 H       1  ZINC000846412382    0.0700
     38 H38        -1.2603   -0.8921   49.2651 H       1  ZINC000846412382    0.3800
     39 H39         0.4542    2.5499   47.7573 H       1  ZINC000846412382    0.1300
     40 H40         2.4284    3.3019   49.0222 H       1  ZINC000846412382    0.1200
     41 H41         2.7085    2.6378   51.3767 H       1  ZINC000846412382    0.1200
     42 H42         1.0138    1.2223   52.4665 H       1  ZINC000846412382    0.1200
     43 H43        -0.9627    0.4740   51.2029 H       1  ZINC000846412382    0.1300
     44 H44        -9.0077   -1.5814   55.8749 H       1  ZINC000846412382    0.0900
     45 H45       -10.4697   -0.6771   55.4132 H       1  ZINC000846412382    0.0900
     46 H46        -9.9522   -2.0829   54.4519 H       1  ZINC000846412382    0.0900
     47 H47        -8.7655    3.5518   54.4672 H       1  ZINC000846412382    0.4100
     48 H48        -7.2993    3.7121   53.6627 H       1  ZINC000846412382    0.4200
@<TRIPOS>BOND
     1     1     2    1
     2     1    28    1
     3     1    29    1
     4     1    30    1
     5     2    27    1
     6     2     3    2
     7     3     4    1
     8     3    19    1
     9     4     5    2
    10     4     6   am
    11     6     7    1
    12     6    31    1
    13     7     8    1
    14     7     9    1
    15     7    10    1
    16     9    32    1
    17     9    33    1
    18     9    34    1
    19    10    11    1
    20    10    12    1
    21    10    13    1
    22    11    35    1
    23    11    36    1
    24    11    37    1
    25    12    38    1
    26    13    18   ar
    27    13    14   ar
    28    14    15   ar
    29    14    39    1
    30    15    16   ar
    31    15    40    1
    32    16    17   ar
    33    16    41    1
    34    17    18   ar
    35    17    42    1
    36    18    43    1
    37    19    20    1
    38    20    27   ar
    39    20    21   ar
    40    21    22   ar
    41    22    23    1
    42    22    24   ar
    43    23    44    1
    44    23    45    1
    45    23    46    1
    46    24    25   ar
    47    25    26    1
    48    25    27   ar
    49    26    47    1
    50    26    48    1
@<TRIPOS>SUBSTRUCTURE
     1 ZINC000846412382        1 TEMP              0 ****  ****    0 ROOT


##########                                Name:    ZINC000006915700
##########                DOCK_Rotatable_Bonds:                   5
##########                         Heavy_Atoms:                  26
##########                    Molecular_Weight:             369.447
##########                DOCK_Rotatable_Bonds:                   5
##########                       Formal_Charge:        -1.04308e-07
##########                     HBond_Acceptors:                   8
##########                        HBond_Donors:                   1
##########                         Heavy_Atoms:                  26
##########                          Grid_Score:          -30.456896
##########                     Grid_vdw_energy:          -30.235653
##########                      Grid_es_energy:           -0.221243
##########           Internal_energy_repulsive:            5.939371

@<TRIPOS>MOLECULE
ZINC000006915700
 45 48 1 0 0
SMALL
USER_CHARGES


@<TRIPOS>ATOM
      1 C1         -4.7974    1.3844   50.6504 C.3     1  <0>        -0.1200
      2 C2         -5.6363    1.1508   51.8804 C.ar    1  <0>        -0.0500
      3 C3         -6.6912    0.2568   51.8351 C.ar    1  <0>        -0.1300
      4 C4         -7.4626    0.0382   52.9581 C.ar    1  <0>        -0.0600
      5 C5         -7.1770    0.7210   54.1406 C.ar    1  <0>        -0.0700
      6 C6         -8.0008    0.4907   55.3496 C.2     1  <0>         0.4400
      7 N7         -7.5501    0.8909   56.5313 N.2     1  <0>        -0.5200
      8 C8         -8.2825    0.6903   57.6310 C.2     1  <0>         0.3600
      9 C9         -8.0835    0.9900   58.9725 C.2     1  <0>        -0.3200
     10 C10        -9.2001    0.5401   59.6788 C.2     1  <0>         0.5500
     11 O11        -9.3688    0.6370   60.8835 O.2     1  <0>        -0.5200
     12 N12       -10.0606   -0.0186   58.8055 N.am    1  <0>        -0.5000
     13 N13        -9.5076    0.0648   57.5239 N.pl3   1  <0>        -0.3300
     14 C14        -9.9433   -0.3350   56.2936 C.2     1  <0>         0.3900
     15 S15       -11.5029   -1.1366   56.1209 S.3     1  <0>         0.1200
     16 C16       -11.1500   -2.6964   56.9686 C.3     1  <0>        -0.1500
     17 C17       -12.4064   -3.5259   57.0377 C.2     1  <0>         0.5500
     18 O18       -12.7048   -4.2528   56.1139 O.2     1  <0>        -0.5200
     19 N19       -13.1985   -3.4596   58.1261 N.am    1  <0>        -0.6100
     20 C20       -14.4445   -4.2140   58.3264 C.3     1  <0>         0.0900
     21 C21       -15.0164   -3.7982   59.6981 C.3     1  <0>        -0.1300
     22 C22       -14.3588   -2.4145   59.9438 C.3     1  <0>        -0.1400
     23 C23       -12.9558   -2.6234   59.3158 C.3     1  <0>         0.1000
     24 N24        -9.1866   -0.1112   55.2305 N.2     1  <0>        -0.5600
     25 C25        -6.1120    1.6211   54.1797 C.ar    1  <0>        -0.0500
     26 C26        -5.3447    1.8270   53.0516 C.ar    1  <0>        -0.1300
     27 H27        -3.9669    0.6785   50.6375 H       1  <0>         0.0800
     28 H28        -5.4099    1.2410   49.7602 H       1  <0>         0.0700
     29 H29        -4.4086    2.4026   50.6637 H       1  <0>         0.0700
     30 H30        -6.9115   -0.2709   50.9190 H       1  <0>         0.1300
     31 H31        -8.2860   -0.6596   52.9215 H       1  <0>         0.1300
     32 H32        -7.2194    1.4824   59.3937 H       1  <0>         0.1800
     33 H33       -10.9189   -0.4119   59.0281 H       1  <0>         0.4400
     34 H34       -10.3835   -3.2431   56.4194 H       1  <0>         0.1400
     35 H35       -10.7956   -2.4891   57.9783 H       1  <0>         0.1400
     36 H36       -15.1566   -3.9696   57.5383 H       1  <0>         0.0800
     37 H37       -14.2350   -5.2838   58.3210 H       1  <0>         0.0800
     38 H38       -16.1016   -3.7066   59.6516 H       1  <0>         0.0900
     39 H39       -14.7209   -4.5082   60.4704 H       1  <0>         0.0800
     40 H40       -14.9069   -1.6247   59.4299 H       1  <0>         0.0800
     41 H41       -14.2801   -2.2031   61.0102 H       1  <0>         0.0900
     42 H42       -12.2983   -3.1356   60.0182 H       1  <0>         0.0800
     43 H43       -12.5257   -1.6662   59.0211 H       1  <0>         0.0800
     44 H44        -5.8861    2.1527   55.0923 H       1  <0>         0.1400
     45 H45        -4.5198    2.5234   53.0808 H       1  <0>         0.1300
@<TRIPOS>BOND
     1     1     2    1
     2     1    27    1
     3     1    28    1
     4     1    29    1
     5     2    26   ar
     6     2     3   ar
     7     3     4   ar
     8     3    30    1
     9     4     5   ar
    10     4    31    1
    11     5     6    1
    12     5    25   ar
    13     6    24    1
    14     6     7    2
    15     7     8    1
    16     8    13    1
    17     8     9    2
    18     9    10    1
    19     9    32    1
    20    10    11    2
    21    10    12   am
    22    12    13    1
    23    12    33    1
    24    13    14    1
    25    14    15    1
    26    14    24    2
    27    15    16    1
    28    16    17    1
    29    16    34    1
    30    16    35    1
    31    17    18    2
    32    17    19   am
    33    19    23    1
    34    19    20    1
    35    20    21    1
    36    20    36    1
    37    20    37    1
    38    21    22    1
    39    21    38    1
    40    21    39    1
    41    22    23    1
    42    22    40    1
    43    22    41    1
    44    23    42    1
    45    23    43    1
    46    25    26   ar
    47    25    44    1
    48    26    45    1
@<TRIPOS>SUBSTRUCTURE
     1 <0>         1 TEMP              0 ****  ****    0 ROOT


##########                                Name:    ZINC000245764166
##########                DOCK_Rotatable_Bonds:                   8
##########                         Heavy_Atoms:                  26
##########                    Molecular_Weight:             359.512
##########                DOCK_Rotatable_Bonds:                   8
##########                       Formal_Charge:          -0.0100008
##########                     HBond_Acceptors:                   5
##########                        HBond_Donors:                   2
##########                         Heavy_Atoms:                  26
##########                          Grid_Score:          -30.449200
##########                     Grid_vdw_energy:          -30.457754
##########                      Grid_es_energy:            0.008555
##########           Internal_energy_repulsive:           26.248240

@<TRIPOS>MOLECULE
ZINC000245764166
 59 61 1 0 0
SMALL
USER_CHARGES


@<TRIPOS>ATOM
      1 C1         -6.4580    2.0041   53.4316 C.3     1  ZINC000245764166    0.0200
      2 N2         -7.4689    1.1612   52.7791 N.3     1  ZINC000245764166   -0.5300
      3 C3         -6.8654    0.3374   51.7231 C.3     1  ZINC000245764166    0.0600
      4 C4         -6.1423    1.2263   50.7442 C.ar    1  ZINC000245764166   -0.0800
      5 C5         -4.8940    0.8641   50.2735 C.ar    1  ZINC000245764166   -0.1000
      6 C6         -4.2306    1.6794   49.3757 C.ar    1  ZINC000245764166   -0.1200
      7 C7         -4.8158    2.8565   48.9480 C.ar    1  ZINC000245764166   -0.1200
      8 C8         -6.0646    3.2182   49.4179 C.ar    1  ZINC000245764166   -0.1200
      9 C9         -6.7297    2.4007   50.3126 C.ar    1  ZINC000245764166   -0.1200
     10 C10        -8.1714    0.3254   53.7619 C.3     1  ZINC000245764166    0.0500
     11 C11        -9.6820    0.4973   53.5905 C.3     1  ZINC000245764166    0.1900
     12 C12        -9.9641    1.7862   52.8158 C.3     1  ZINC000245764166   -0.1600
     13 C13       -10.2468   -0.6962   52.8177 C.3     1  ZINC000245764166   -0.1500
     14 N14       -10.3177    0.5707   54.9084 N.am    1  ZINC000245764166   -0.7400
     15 C15       -10.0448   -0.3631   55.8412 C.2     1  ZINC000245764166    0.7000
     16 O16        -9.2722   -1.2672   55.5885 O.2     1  ZINC000245764166   -0.5800
     17 N17       -10.6285   -0.2946   57.0541 N.am    1  ZINC000245764166   -0.7500
     18 C18       -10.3331   -1.3106   58.0675 C.3     1  ZINC000245764166    0.1800
     19 H19        -9.2738   -1.5637   58.0236 H       1  ZINC000245764166    0.0900
     20 C20       -11.1608   -2.5610   57.7813 C.3     1  ZINC000245764166   -0.1300
     21 C21       -10.7969   -3.6349   58.8126 C.3     1  ZINC000245764166   -0.1100
     22 C22       -11.1927   -3.1251   60.1982 C.3     1  ZINC000245764166   -0.1100
     23 C23       -10.4840   -1.8338   60.5330 C.3     1  ZINC000245764166    0.0900
     24 H24       -10.8793   -1.4447   61.4713 H       1  ZINC000245764166    0.0600
     25 O25        -9.0635   -1.9879   60.6550 O.3     1  ZINC000245764166   -0.3600
     26 C26        -8.5100   -0.6578   60.6078 C.3     1  ZINC000245764166    0.0500
     27 C27        -9.5016    0.2242   59.8223 C.3     1  ZINC000245764166   -0.1500
     28 C28       -10.6599   -0.7498   59.4532 C.3     1  ZINC000245764166   -0.1300
     29 H29       -11.6389   -0.2725   59.4967 H       1  ZINC000245764166    0.1000
     30 H30        -5.9648    2.6249   52.6837 H       1  ZINC000245764166    0.0800
     31 H31        -6.9400    2.6417   54.1726 H       1  ZINC000245764166    0.0700
     32 H32        -5.7190    1.3709   53.9227 H       1  ZINC000245764166    0.0200
     33 H33        -6.1589   -0.3632   52.1680 H       1  ZINC000245764166    0.0400
     34 H34        -7.6470   -0.2160   51.2026 H       1  ZINC000245764166    0.1100
     35 H35        -4.4368   -0.0555   50.6076 H       1  ZINC000245764166    0.1200
     36 H36        -3.2550    1.3969   49.0085 H       1  ZINC000245764166    0.1200
     37 H37        -4.2973    3.4938   48.2471 H       1  ZINC000245764166    0.1200
     38 H38        -6.5216    4.1379   49.0841 H       1  ZINC000245764166    0.1200
     39 H39        -7.7053    2.6832   50.6797 H       1  ZINC000245764166    0.1200
     40 H40        -7.9047   -0.7200   53.6067 H       1  ZINC000245764166    0.0400
     41 H41        -7.8833    0.6283   54.7686 H       1  ZINC000245764166    0.1000
     42 H42        -9.4911    1.7315   51.8353 H       1  ZINC000245764166    0.0700
     43 H43       -11.0403    1.9086   52.6937 H       1  ZINC000245764166    0.0800
     44 H44        -9.5617    2.6365   53.3664 H       1  ZINC000245764166    0.0500
     45 H45       -10.1561   -1.5975   53.4241 H       1  ZINC000245764166    0.0600
     46 H46       -11.2971   -0.5166   52.5885 H       1  ZINC000245764166    0.0800
     47 H47        -9.6893   -0.8250   51.8899 H       1  ZINC000245764166    0.0600
     48 H48       -10.9351    1.2913   55.1096 H       1  ZINC000245764166    0.3900
     49 H49       -11.2439    0.4273   57.2562 H       1  ZINC000245764166    0.3900
     50 H50       -12.2217   -2.3233   57.8594 H       1  ZINC000245764166    0.0600
     51 H51       -10.9377   -2.9260   56.7789 H       1  ZINC000245764166    0.0700
     52 H52       -11.3380   -4.5549   58.5914 H       1  ZINC000245764166    0.0700
     53 H53        -9.7237   -3.8235   58.7834 H       1  ZINC000245764166    0.0700
     54 H54       -12.2695   -2.9576   60.2225 H       1  ZINC000245764166    0.0800
     55 H55       -10.9331   -3.8778   60.9428 H       1  ZINC000245764166    0.0700
     56 H56        -8.3903   -0.2702   61.6195 H       1  ZINC000245764166    0.0600
     57 H57        -7.5461   -0.6754   60.0991 H       1  ZINC000245764166    0.0800
     58 H58        -9.8704    1.0362   60.4490 H       1  ZINC000245764166    0.0800
     59 H59        -9.0318    0.6186   58.9213 H       1  ZINC000245764166    0.0800
@<TRIPOS>BOND
     1     1     2    1
     2     1    30    1
     3     1    31    1
     4     1    32    1
     5     2     3    1
     6     2    10    1
     7     3     4    1
     8     3    33    1
     9     3    34    1
    10     4     9   ar
    11     4     5   ar
    12     5     6   ar
    13     5    35    1
    14     6     7   ar
    15     6    36    1
    16     7     8   ar
    17     7    37    1
    18     8     9   ar
    19     8    38    1
    20     9    39    1
    21    10    11    1
    22    10    40    1
    23    10    41    1
    24    11    12    1
    25    11    13    1
    26    11    14    1
    27    12    42    1
    28    12    43    1
    29    12    44    1
    30    13    45    1
    31    13    46    1
    32    13    47    1
    33    14    15   am
    34    14    48    1
    35    15    16    2
    36    15    17   am
    37    17    18    1
    38    17    49    1
    39    18    19    1
    40    18    28    1
    41    18    20    1
    42    20    21    1
    43    20    50    1
    44    20    51    1
    45    21    22    1
    46    21    52    1
    47    21    53    1
    48    22    23    1
    49    22    54    1
    50    22    55    1
    51    23    24    1
    52    23    28    1
    53    23    25    1
    54    25    26    1
    55    26    27    1
    56    26    56    1
    57    26    57    1
    58    27    28    1
    59    27    58    1
    60    27    59    1
    61    28    29    1
@<TRIPOS>SUBSTRUCTURE
     1 ZINC000245764166        1 TEMP              0 ****  ****    0 ROOT


##########                                Name:    ZINC000534890536
##########                DOCK_Rotatable_Bonds:                   6
##########                         Heavy_Atoms:                  30
##########                    Molecular_Weight:             411.476
##########                DOCK_Rotatable_Bonds:                   6
##########                       Formal_Charge:          0.00999957
##########                     HBond_Acceptors:                   7
##########                        HBond_Donors:                   1
##########                         Heavy_Atoms:                  30
##########                          Grid_Score:          -30.447872
##########                     Grid_vdw_energy:          -29.468592
##########                      Grid_es_energy:           -0.979280
##########           Internal_energy_repulsive:           16.130287

@<TRIPOS>MOLECULE
ZINC000534890536
 56 59 1 0 0
SMALL
USER_CHARGES


@<TRIPOS>ATOM
      1 C1         -7.8174    1.5917   64.8054 C.3     1  ZINC000534890536    0.0300
      2 O2         -9.2393    1.4872   64.7084 O.3     1  ZINC000534890536   -0.3200
      3 C3         -9.7351    0.7513   63.6792 C.ar    1  ZINC000534890536    0.1300
      4 C4         -8.8709    0.0968   62.8135 C.ar    1  ZINC000534890536   -0.2100
      5 C5         -9.3774   -0.6511   61.7682 C.ar    1  ZINC000534890536   -0.0700
      6 C6        -10.7444   -0.7473   61.5842 C.ar    1  ZINC000534890536   -0.1100
      7 C7        -11.2942   -1.5633   60.4428 C.3     1  ZINC000534890536   -0.0600
      8 H8        -12.3820   -1.6136   60.4897 H       1  ZINC000534890536    0.0900
      9 C9        -10.6721   -2.9846   60.4249 C.3     1  ZINC000534890536   -0.1200
     10 C10       -10.7743   -3.3879   58.9388 C.3     1  ZINC000534890536    0.1000
     11 N11       -10.8795   -2.1478   58.1562 N.am    1  ZINC000534890536   -0.6400
     12 C12       -11.0083   -2.0729   56.8166 C.2     1  ZINC000534890536    0.7300
     13 O13       -11.0469   -3.0901   56.1518 O.2     1  ZINC000534890536   -0.5700
     14 N14       -11.0944   -0.8704   56.2141 N.am    1  ZINC000534890536   -0.7300
     15 C15       -11.2327   -0.7889   54.7579 C.3     1  ZINC000534890536    0.1600
     16 H16       -11.5888   -1.7449   54.3740 H       1  ZINC000534890536    0.1200
     17 C17       -12.2394    0.3082   54.4034 C.3     1  ZINC000534890536   -0.1300
     18 C18       -12.1648    0.5648   52.8934 C.3     1  ZINC000534890536   -0.1300
     19 C19       -10.8070    1.1890   52.5692 C.3     1  ZINC000534890536    0.1100
     20 N20        -9.7301    0.3994   53.1533 N.am    1  ZINC000534890536   -0.5600
     21 C21        -8.4385    0.5691   52.6392 C.ar    1  ZINC000534890536    0.1000
     22 C22        -7.8386   -0.4513   51.9150 C.ar    1  ZINC000534890536   -0.0800
     23 C23        -6.5643   -0.2809   51.4085 C.ar    1  ZINC000534890536   -0.1200
     24 C24        -5.8856    0.9042   51.6225 C.ar    1  ZINC000534890536   -0.0800
     25 C25        -6.4791    1.9243   52.3438 C.ar    1  ZINC000534890536   -0.1500
     26 C26        -7.7562    1.7629   52.8486 C.ar    1  ZINC000534890536    0.1100
     27 F27        -8.3363    2.7592   53.5529 F       1  ZINC000534890536   -0.1300
     28 C28        -9.8979   -0.4721   54.1470 C.2     1  ZINC000534890536    0.5000
     29 O29        -8.9197   -1.0431   54.5811 O.2     1  ZINC000534890536   -0.5100
     30 C30       -10.8227   -0.9992   59.0793 C.3     1  ZINC000534890536    0.1300
     31 C31       -11.6079   -0.0963   62.4460 C.ar    1  ZINC000534890536   -0.0700
     32 C32       -11.1065    0.6486   63.4958 C.ar    1  ZINC000534890536   -0.1500
     33 H33        -7.3871    0.5971   64.9225 H       1  ZINC000534890536    0.0600
     34 H34        -7.4244    2.0532   63.8994 H       1  ZINC000534890536    0.0600
     35 H35        -7.5561    2.2046   65.6681 H       1  ZINC000534890536    0.1000
     36 H36        -7.8031    0.1721   62.9563 H       1  ZINC000534890536    0.1300
     37 H37        -8.7051   -1.1609   61.0940 H       1  ZINC000534890536    0.1300
     38 H38        -9.6307   -2.9538   60.7454 H       1  ZINC000534890536    0.0800
     39 H39       -11.2491   -3.6661   61.0500 H       1  ZINC000534890536    0.0900
     40 H40        -9.8819   -3.9390   58.6421 H       1  ZINC000534890536    0.0700
     41 H41       -11.6611   -4.0019   58.7815 H       1  ZINC000534890536    0.0700
     42 H42       -11.0648   -0.0588   56.7446 H       1  ZINC000534890536    0.4000
     43 H43       -13.2450   -0.0158   54.6714 H       1  ZINC000534890536    0.0900
     44 H44       -11.9917    1.2221   54.9435 H       1  ZINC000534890536    0.0800
     45 H45       -12.2716   -0.3778   52.3566 H       1  ZINC000534890536    0.0800
     46 H46       -12.9613    1.2483   52.5988 H       1  ZINC000534890536    0.1000
     47 H47       -10.6781    1.2296   51.4875 H       1  ZINC000534890536    0.0800
     48 H48       -10.7706    2.2014   52.9714 H       1  ZINC000534890536    0.0700
     49 H49        -8.3672   -1.3780   51.7474 H       1  ZINC000534890536    0.1300
     50 H50        -6.0975   -1.0751   50.8448 H       1  ZINC000534890536    0.1300
     51 H51        -4.8894    1.0338   51.2259 H       1  ZINC000534890536    0.1400
     52 H52        -5.9462    2.8490   52.5093 H       1  ZINC000534890536    0.1400
     53 H53       -11.4929   -0.2083   58.7425 H       1  ZINC000534890536    0.0800
     54 H54        -9.8018   -0.6250   59.1569 H       1  ZINC000534890536    0.0700
     55 H55       -12.6752   -0.1732   62.3003 H       1  ZINC000534890536    0.1300
     56 H56       -11.7812    1.1568   64.1686 H       1  ZINC000534890536    0.1300
@<TRIPOS>BOND
     1     1     2    1
     2     1    33    1
     3     1    34    1
     4     1    35    1
     5     2     3    1
     6     3    32   ar
     7     3     4   ar
     8     4     5   ar
     9     4    36    1
    10     5     6   ar
    11     5    37    1
    12     6     7    1
    13     6    31   ar
    14     7     8    1
    15     7    30    1
    16     7     9    1
    17     9    10    1
    18     9    38    1
    19     9    39    1
    20    10    11    1
    21    10    40    1
    22    10    41    1
    23    11    12   am
    24    11    30    1
    25    12    13    2
    26    12    14   am
    27    14    15    1
    28    14    42    1
    29    15    16    1
    30    15    28    1
    31    15    17    1
    32    17    18    1
    33    17    43    1
    34    17    44    1
    35    18    19    1
    36    18    45    1
    37    18    46    1
    38    19    20    1
    39    19    47    1
    40    19    48    1
    41    20    21    1
    42    20    28   am
    43    21    26   ar
    44    21    22   ar
    45    22    23   ar
    46    22    49    1
    47    23    24   ar
    48    23    50    1
    49    24    25   ar
    50    24    51    1
    51    25    26   ar
    52    25    52    1
    53    26    27    1
    54    28    29    2
    55    30    53    1
    56    30    54    1
    57    31    32   ar
    58    31    55    1
    59    32    56    1
@<TRIPOS>SUBSTRUCTURE
     1 ZINC000534890536        1 TEMP              0 ****  ****    0 ROOT


##########                                Name:    ZINC000541252362
##########                DOCK_Rotatable_Bonds:                   5
##########                         Heavy_Atoms:                  27
##########                    Molecular_Weight:             401.254
##########                DOCK_Rotatable_Bonds:                   5
##########                       Formal_Charge:          -0.0199999
##########                     HBond_Acceptors:                   9
##########                        HBond_Donors:                   1
##########                         Heavy_Atoms:                  27
##########                          Grid_Score:          -30.441473
##########                     Grid_vdw_energy:          -32.055115
##########                      Grid_es_energy:            1.613641
##########           Internal_energy_repulsive:            4.247960

@<TRIPOS>MOLECULE
ZINC000541252362
 41 44 1 0 0
SMALL
USER_CHARGES


@<TRIPOS>ATOM
      1 C1         -6.5289    3.5638   57.9938 C.3     1  ZINC000541252362    0.1000
      2 N2         -6.8173    2.5172   57.0100 N.pl3   1  ZINC000541252362   -0.3800
      3 C3         -7.3848    1.3214   57.2503 C.2     1  ZINC000541252362    0.2600
      4 N4         -7.4726    0.6743   56.1184 N.2     1  ZINC000541252362   -0.5300
      5 C5         -6.9710    1.4236   55.1276 C.2     1  ZINC000541252362    0.2700
      6 C6         -6.8963    1.0305   53.6985 C.ar    1  ZINC000541252362    0.0000
      7 C7         -7.4225   -0.1905   53.2814 C.ar    1  ZINC000541252362   -0.1000
      8 C8         -7.3526   -0.5549   51.9513 C.ar    1  ZINC000541252362   -0.1000
      9 C9         -6.7614    0.2883   51.0300 C.ar    1  ZINC000541252362   -0.1300
     10 C10        -6.2341    1.5079   51.4370 C.ar    1  ZINC000541252362    0.1400
     11 N11        -5.6359    2.3592   50.5011 N.am    1  ZINC000541252362   -0.6800
     12 C12        -4.5126    1.9760   49.8627 C.2     1  ZINC000541252362    0.5100
     13 O13        -4.0199    0.8933   50.0993 O.2     1  ZINC000541252362   -0.4900
     14 C14        -3.8686    2.8928   48.8549 C.3     1  ZINC000541252362   -0.0600
     15 C15        -2.5547    2.3050   48.4085 C.2     1  ZINC000541252362    0.0700
     16 C16        -1.3676    2.4617   49.0346 C.2     1  ZINC000541252362   -0.0700
     17 N17        -0.4344    1.7719   48.3101 N.pl3   1  ZINC000541252362   -0.3500
     18 C18         0.9088    1.5855   48.4734 C.2     1  ZINC000541252362    0.0700
     19 C19         1.6122    0.8426   47.5921 C.2     1  ZINC000541252362   -0.0500
     20 Cl20        3.3187    0.6186   47.8187 Cl      1  ZINC000541252362   -0.0200
     21 C21         0.9686    0.2496   46.4924 C.2     1  ZINC000541252362   -0.0900
     22 C22        -0.3695    0.4273   46.3184 C.2     1  ZINC000541252362    0.0200
     23 Cl23       -1.1818   -0.2979   44.9664 Cl      1  ZINC000541252362   -0.0100
     24 C24        -1.0896    1.2064   47.2477 C.2     1  ZINC000541252362    0.2200
     25 N25        -2.3706    1.5377   47.3318 N.2     1  ZINC000541252362   -0.4300
     26 C26        -6.3054    1.8833   52.7698 C.ar    1  ZINC000541252362   -0.0800
     27 N27        -6.5612    2.5675   55.6302 N.2     1  ZINC000541252362   -0.3100
     28 H28        -7.3884    4.2287   58.0793 H       1  ZINC000541252362    0.0800
     29 H29        -6.3256    3.1064   58.9620 H       1  ZINC000541252362    0.0900
     30 H30        -5.6583    4.1351   57.6718 H       1  ZINC000541252362    0.0900
     31 H31        -7.7116    0.9583   58.2135 H       1  ZINC000541252362    0.2200
     32 H32        -7.8847   -0.8524   53.9988 H       1  ZINC000541252362    0.1300
     33 H33        -7.7610   -1.5017   51.6301 H       1  ZINC000541252362    0.1300
     34 H34        -6.7085   -0.0014   49.9909 H       1  ZINC000541252362    0.1300
     35 H35        -6.0300    3.2252   50.3120 H       1  ZINC000541252362    0.4100
     36 H36        -4.5272    3.0061   47.9938 H       1  ZINC000541252362    0.1200
     37 H37        -3.6945    3.8680   49.3098 H       1  ZINC000541252362    0.1200
     38 H38        -1.1888    3.0265   49.9377 H       1  ZINC000541252362    0.1900
     39 H39         1.4131    2.0368   49.3152 H       1  ZINC000541252362    0.1800
     40 H40         1.5332   -0.3439   45.7885 H       1  ZINC000541252362    0.1600
     41 H41        -5.8966    2.8309   53.0882 H       1  ZINC000541252362    0.1500
@<TRIPOS>BOND
     1     1     2    1
     2     1    28    1
     3     1    29    1
     4     1    30    1
     5     2    27    1
     6     2     3    1
     7     3     4    2
     8     3    31    1
     9     4     5    1
    10     5     6    1
    11     5    27    2
    12     6    26   ar
    13     6     7   ar
    14     7     8   ar
    15     7    32    1
    16     8     9   ar
    17     8    33    1
    18     9    10   ar
    19     9    34    1
    20    10    11    1
    21    10    26   ar
    22    11    12   am
    23    11    35    1
    24    12    13    2
    25    12    14    1
    26    14    15    1
    27    14    36    1
    28    14    37    1
    29    15    25    1
    30    15    16    2
    31    16    17    1
    32    16    38    1
    33    17    24    1
    34    17    18    1
    35    18    19    2
    36    18    39    1
    37    19    20    1
    38    19    21    1
    39    21    22    2
    40    21    40    1
    41    22    23    1
    42    22    24    1
    43    24    25    2
    44    26    41    1
@<TRIPOS>SUBSTRUCTURE
     1 ZINC000541252362        1 TEMP              0 ****  ****    0 ROOT


##########                                Name:    ZINC000541315701
##########                DOCK_Rotatable_Bonds:                   4
##########                         Heavy_Atoms:                  25
##########                    Molecular_Weight:             422.709
##########                DOCK_Rotatable_Bonds:                   4
##########                       Formal_Charge:           0.0300003
##########                     HBond_Acceptors:                   6
##########                        HBond_Donors:                   0
##########                         Heavy_Atoms:                  25
##########                          Grid_Score:          -30.440161
##########                     Grid_vdw_energy:          -29.562559
##########                      Grid_es_energy:           -0.877601
##########           Internal_energy_repulsive:           20.541426

@<TRIPOS>MOLECULE
ZINC000541315701
 42 44 1 0 0
SMALL
USER_CHARGES


@<TRIPOS>ATOM
      1 C1         -5.7216    2.7278   49.2874 C.3     1  ZINC000541315701    0.0800
      2 N2         -5.0707    1.8772   50.2870 N.am    1  ZINC000541315701   -0.5700
      3 C3         -3.7374    1.6854   50.2433 C.2     1  ZINC000541315701    0.5400
      4 O4         -3.1986    0.9812   51.0707 O.2     1  ZINC000541315701   -0.5000
      5 C5         -2.9160    2.3460   49.1662 C.3     1  ZINC000541315701   -0.1100
      6 H6         -3.4295    2.3036   48.2057 H       1  ZINC000541315701    0.1300
      7 C7         -2.5746    3.8051   49.5474 C.3     1  ZINC000541315701   -0.1500
      8 C8         -1.2233    3.7062   50.2204 C.2     1  ZINC000541315701    0.5200
      9 O9         -0.7264    4.5706   50.9110 O.2     1  ZINC000541315701   -0.5200
     10 N10        -0.6538    2.5209   49.9420 N.am    1  ZINC000541315701   -0.6100
     11 C11         0.6554    2.0950   50.4427 C.3     1  ZINC000541315701    0.0900
     12 C12        -1.5125    1.7076   49.0714 C.3     1  ZINC000541315701    0.1900
     13 H13        -1.5416    0.6774   49.4264 H       1  ZINC000541315701    0.1100
     14 C14        -1.0100    1.7551   47.6515 C.ar    1  ZINC000541315701   -0.0900
     15 C15        -0.1449    2.7587   47.2581 C.ar    1  ZINC000541315701   -0.1000
     16 C16         0.3170    2.8029   45.9556 C.ar    1  ZINC000541315701   -0.1000
     17 C17        -0.0866    1.8438   45.0463 C.ar    1  ZINC000541315701   -0.1000
     18 C18        -0.9526    0.8387   45.4396 C.ar    1  ZINC000541315701   -0.0300
     19 Cl19       -1.4595   -0.3669   44.2980 Cl      1  ZINC000541315701   -0.0600
     20 C20        -1.4099    0.7919   46.7443 C.ar    1  ZINC000541315701   -0.0900
     21 C21        -5.8308    1.2660   51.2835 C.ar    1  ZINC000541315701    0.3800
     22 N22        -6.1027   -0.0264   51.2007 N.ar    1  ZINC000541315701   -0.4700
     23 C23        -6.8178   -0.6438   52.1219 C.ar    1  ZINC000541315701    0.1300
     24 C24        -7.3116    0.0427   53.2133 C.ar    1  ZINC000541315701   -0.1600
     25 C25        -7.0491    1.4003   53.3382 C.ar    1  ZINC000541315701   -0.0400
     26 C26        -6.2915    2.0190   52.3586 C.ar    1  ZINC000541315701   -0.1300
     27 Br27       -5.8999    3.8655   52.4734 Br      1  ZINC000541315701   -0.0200
     28 H28        -5.2046    2.6276   48.3330 H       1  ZINC000541315701    0.0900
     29 H29        -6.7613    2.4218   49.1714 H       1  ZINC000541315701    0.0800
     30 H30        -5.6830    3.7670   49.6142 H       1  ZINC000541315701    0.0700
     31 H31        -2.5115    4.4277   48.6549 H       1  ZINC000541315701    0.1200
     32 H32        -3.3173    4.2025   50.2393 H       1  ZINC000541315701    0.1100
     33 H33         1.0806    2.8829   51.0643 H       1  ZINC000541315701    0.0900
     34 H34         0.5402    1.1872   51.0350 H       1  ZINC000541315701    0.0700
     35 H35         1.3196    1.8978   49.6012 H       1  ZINC000541315701    0.0600
     36 H36         0.1701    3.5090   47.9682 H       1  ZINC000541315701    0.1300
     37 H37         0.9930    3.5873   45.6487 H       1  ZINC000541315701    0.1400
     38 H38         0.2738    1.8787   44.0287 H       1  ZINC000541315701    0.1400
     39 H39        -2.0858    0.0078   47.0519 H       1  ZINC000541315701    0.1400
     40 H40        -7.0200   -1.6999   52.0205 H       1  ZINC000541315701    0.1700
     41 H41        -7.8962   -0.4711   53.9621 H       1  ZINC000541315701    0.1500
     42 H42        -7.4238    1.9598   54.1825 H       1  ZINC000541315701    0.1500
@<TRIPOS>BOND
     1     1     2    1
     2     1    28    1
     3     1    29    1
     4     1    30    1
     5     2     3   am
     6     2    21    1
     7     3     4    2
     8     3     5    1
     9     5     6    1
    10     5    12    1
    11     5     7    1
    12     7     8    1
    13     7    31    1
    14     7    32    1
    15     8     9    2
    16     8    10   am
    17    10    11    1
    18    10    12    1
    19    11    33    1
    20    11    34    1
    21    11    35    1
    22    12    13    1
    23    12    14    1
    24    14    20   ar
    25    14    15   ar
    26    15    16   ar
    27    15    36    1
    28    16    17   ar
    29    16    37    1
    30    17    18   ar
    31    17    38    1
    32    18    19    1
    33    18    20   ar
    34    20    39    1
    35    21    26   ar
    36    21    22   ar
    37    22    23   ar
    38    23    24   ar
    39    23    40    1
    40    24    25   ar
    41    24    41    1
    42    25    26   ar
    43    25    42    1
    44    26    27    1
@<TRIPOS>SUBSTRUCTURE
     1 ZINC000541315701        1 TEMP              0 ****  ****    0 ROOT


##########                                Name:    ZINC000430767928
##########                DOCK_Rotatable_Bonds:                   4
##########                         Heavy_Atoms:                  25
##########                    Molecular_Weight:             358.505
##########                DOCK_Rotatable_Bonds:                   4
##########                       Formal_Charge:          -0.0100002
##########                     HBond_Acceptors:                   5
##########                        HBond_Donors:                   0
##########                         Heavy_Atoms:                  25
##########                          Grid_Score:          -30.417246
##########                     Grid_vdw_energy:          -30.317984
##########                      Grid_es_energy:           -0.099263
##########           Internal_energy_repulsive:           17.072485

@<TRIPOS>MOLECULE
ZINC000430767928
 51 55 1 0 0
SMALL
USER_CHARGES


@<TRIPOS>ATOM
      1 O1         -0.9095    3.5344   50.4031 O.2     1  ZINC000430767928   -0.4600
      2 C2         -1.8323    3.2958   49.6540 C.2     1  ZINC000430767928    0.5300
      3 C3         -3.2766    3.7024   49.8209 C.3     1  ZINC000430767928    0.0400
      4 H4         -3.4352    4.7703   49.6705 H       1  ZINC000430767928    0.1400
      5 C5         -3.8580    3.1933   51.1560 C.3     1  ZINC000430767928   -0.1100
      6 C6         -5.3470    2.9516   50.7989 C.3     1  ZINC000430767928   -0.1000
      7 H7         -5.9513    3.8101   51.0921 H       1  ZINC000430767928    0.1000
      8 C8         -5.8592    1.6828   51.4836 C.3     1  ZINC000430767928   -0.0800
      9 C9         -5.7248    1.8318   53.0003 C.3     1  ZINC000430767928   -0.1100
     10 C10        -6.2370    0.5630   53.6848 C.3     1  ZINC000430767928   -0.1200
     11 C11        -7.7075    0.3460   53.3221 C.3     1  ZINC000430767928   -0.1200
     12 C12        -7.8420    0.1970   51.8053 C.3     1  ZINC000430767928   -0.1200
     13 C13        -7.3297    1.4659   51.1208 C.3     1  ZINC000430767928   -0.1200
     14 C14        -5.3643    2.7813   49.2644 C.3     1  ZINC000430767928    0.1600
     15 N15        -3.9671    2.8581   48.8059 N.am    1  ZINC000430767928   -0.6400
     16 C16        -3.0164    2.4860   47.9428 C.2     1  ZINC000430767928    0.7400
     17 O17        -3.2355    2.0704   46.8219 O.2     1  ZINC000430767928   -0.5100
     18 N18        -1.7869    2.6137   48.4881 N.am    1  ZINC000430767928   -0.5800
     19 C19        -0.5602    2.0748   47.8956 C.3     1  ZINC000430767928    0.2600
     20 H20         0.1460    1.8242   48.6873 H       1  ZINC000430767928    0.1200
     21 C21        -0.8873    0.8353   47.1035 C.2     1  ZINC000430767928   -0.2100
     22 C22        -1.3668   -0.2997   47.6146 C.2     1  ZINC000430767928   -0.1200
     23 C23        -1.5922   -1.3059   46.6911 C.2     1  ZINC000430767928   -0.1400
     24 C24        -1.2954   -0.9881   45.4300 C.2     1  ZINC000430767928   -0.2300
     25 S25        -0.7022    0.6663   45.3625 S.3     1  ZINC000430767928    0.1700
     26 C26         0.0619    3.1222   46.9700 C.3     1  ZINC000430767928   -0.1700
     27 C27         1.3076    3.8565   47.4704 C.3     1  ZINC000430767928   -0.1700
     28 C28         1.4311    2.8060   46.3648 C.3     1  ZINC000430767928   -0.1600
     29 H29        -3.3763    2.2637   51.4590 H       1  ZINC000430767928    0.0800
     30 H30        -3.7640    3.9512   51.9337 H       1  ZINC000430767928    0.1000
     31 H31        -5.2725    0.8273   51.1490 H       1  ZINC000430767928    0.0700
     32 H32        -4.6771    1.9864   53.2587 H       1  ZINC000430767928    0.0600
     33 H33        -6.3115    2.6873   53.3348 H       1  ZINC000430767928    0.0700
     34 H34        -5.6502   -0.2925   53.3503 H       1  ZINC000430767928    0.0600
     35 H35        -6.1412    0.6692   54.7654 H       1  ZINC000430767928    0.0600
     36 H36        -8.0724   -0.5579   53.8097 H       1  ZINC000430767928    0.0600
     37 H37        -8.2943    1.2015   53.6565 H       1  ZINC000430767928    0.0600
     38 H38        -7.2552   -0.6585   51.4707 H       1  ZINC000430767928    0.0600
     39 H39        -8.8895    0.0425   51.5469 H       1  ZINC000430767928    0.0600
     40 H40        -7.9165    2.3214   51.4553 H       1  ZINC000430767928    0.0700
     41 H41        -7.4255    1.3596   50.0402 H       1  ZINC000430767928    0.0600
     42 H42        -5.7969    1.8161   49.0009 H       1  ZINC000430767928    0.0900
     43 H43        -5.9391    3.5860   48.8061 H       1  ZINC000430767928    0.0800
     44 H44        -1.5642   -0.4242   48.6691 H       1  ZINC000430767928    0.1400
     45 H45        -1.9784   -2.2749   46.9705 H       1  ZINC000430767928    0.1400
     46 H46        -1.4060   -1.6450   44.5799 H       1  ZINC000430767928    0.1600
     47 H47        -0.6418    3.6847   46.3564 H       1  ZINC000430767928    0.1200
     48 H48         1.4235    4.9023   47.1861 H       1  ZINC000430767928    0.1000
     49 H49         1.6838    3.5933   48.4589 H       1  ZINC000430767928    0.1000
     50 H50         1.8887    1.8518   46.6260 H       1  ZINC000430767928    0.1000
     51 H51         1.6283    3.1609   45.3532 H       1  ZINC000430767928    0.1000
@<TRIPOS>BOND
     1     1     2    2
     2     2    18   am
     3     2     3    1
     4     3     4    1
     5     3    15    1
     6     3     5    1
     7     5     6    1
     8     5    29    1
     9     5    30    1
    10     6     7    1
    11     6     8    1
    12     6    14    1
    13     8    13    1
    14     8     9    1
    15     8    31    1
    16     9    10    1
    17     9    32    1
    18     9    33    1
    19    10    11    1
    20    10    34    1
    21    10    35    1
    22    11    12    1
    23    11    36    1
    24    11    37    1
    25    12    13    1
    26    12    38    1
    27    12    39    1
    28    13    40    1
    29    13    41    1
    30    14    15    1
    31    14    42    1
    32    14    43    1
    33    15    16   am
    34    16    17    2
    35    16    18   am
    36    18    19    1
    37    19    20    1
    38    19    21    1
    39    19    26    1
    40    21    25    1
    41    21    22    2
    42    22    23    1
    43    22    44    1
    44    23    24    2
    45    23    45    1
    46    24    25    1
    47    24    46    1
    48    26    28    1
    49    26    27    1
    50    26    47    1
    51    27    28    1
    52    27    48    1
    53    27    49    1
    54    28    50    1
    55    28    51    1
@<TRIPOS>SUBSTRUCTURE
     1 ZINC000430767928        1 TEMP              0 ****  ****    0 ROOT


##########                                Name:    ZINC000432833246
##########                DOCK_Rotatable_Bonds:                   5
##########                         Heavy_Atoms:                  25
##########                    Molecular_Weight:             400.318
##########                DOCK_Rotatable_Bonds:                   5
##########                       Formal_Charge:        -3.20375e-07
##########                     HBond_Acceptors:                   4
##########                        HBond_Donors:                   1
##########                         Heavy_Atoms:                  25
##########                          Grid_Score:          -30.416853
##########                     Grid_vdw_energy:          -29.857761
##########                      Grid_es_energy:           -0.559092
##########           Internal_energy_repulsive:            9.204629

@<TRIPOS>MOLECULE
ZINC000432833246
 47 51 1 0 0
SMALL
USER_CHARGES


@<TRIPOS>ATOM
      1 O1        -16.6983   -1.8228   58.5738 O.2     1  ZINC000432833246   -0.5200
      2 C2        -15.5475   -2.2038   58.6105 C.2     1  ZINC000432833246    0.5200
      3 C3        -14.8120   -2.8518   57.4581 C.3     1  ZINC000432833246   -0.1500
      4 C4        -13.3214   -2.7572   57.8584 C.3     1  ZINC000432833246   -0.1100
      5 H5        -12.8629   -1.8587   57.4452 H       1  ZINC000432833246    0.1000
      6 C6        -12.5570   -4.0087   57.4224 C.3     1  ZINC000432833246    0.1300
      7 N7        -11.1438   -3.8679   57.7823 N.pl3   1  ZINC000432833246   -0.7200
      8 C8        -10.4435   -2.7306   57.4098 C.ar    1  ZINC000432833246    0.2800
      9 C9         -9.8135   -1.9117   58.3769 C.ar    1  ZINC000432833246   -0.1500
     10 C10        -9.8730   -2.2189   59.7434 C.ar    1  ZINC000432833246   -0.0700
     11 C11        -9.2533   -1.4063   60.6445 C.ar    1  ZINC000432833246   -0.1300
     12 C12        -8.5610   -0.2729   60.2255 C.ar    1  ZINC000432833246   -0.0600
     13 C13        -8.4837    0.0544   58.9055 C.ar    1  ZINC000432833246   -0.0800
     14 Br14       -7.5364    1.5991   58.3646 Br      1  ZINC000432833246   -0.0300
     15 C15        -9.1106   -0.7613   57.9466 C.ar    1  ZINC000432833246    0.1900
     16 N16        -9.0502   -0.4638   56.6438 N.ar    1  ZINC000432833246   -0.5000
     17 C17        -9.6301   -1.2158   55.7372 C.ar    1  ZINC000432833246    0.2400
     18 C18        -9.5246   -0.8255   54.2856 C.3     1  ZINC000432833246   -0.1100
     19 C19       -10.8084   -0.8457   53.4535 C.3     1  ZINC000432833246   -0.1700
     20 C20       -10.1800    0.4893   53.8581 C.3     1  ZINC000432833246   -0.1600
     21 C21       -10.3335   -2.3629   56.0778 C.ar    1  ZINC000432833246   -0.2700
     22 C22       -13.4135   -2.6729   59.3981 C.3     1  ZINC000432833246    0.1100
     23 N23       -14.7380   -2.1066   59.6793 N.am    1  ZINC000432833246   -0.5900
     24 C24       -15.1304   -1.5192   60.9627 C.3     1  ZINC000432833246    0.0800
     25 C25       -14.5324   -2.1301   62.2315 C.3     1  ZINC000432833246   -0.1900
     26 C26       -14.0606   -0.7576   61.7476 C.3     1  ZINC000432833246   -0.1900
     27 H27       -15.1129   -3.8939   57.3512 H       1  ZINC000432833246    0.1100
     28 H28       -14.9942   -2.3043   56.5333 H       1  ZINC000432833246    0.1000
     29 H29       -12.9742   -4.8822   57.9234 H       1  ZINC000432833246    0.0800
     30 H30       -12.6466   -4.1316   56.3430 H       1  ZINC000432833246    0.0700
     31 H31       -10.6982   -4.5703   58.2812 H       1  ZINC000432833246    0.4000
     32 H32       -10.4075   -3.0949   60.0801 H       1  ZINC000432833246    0.1300
     33 H33        -9.2998   -1.6439   61.6971 H       1  ZINC000432833246    0.1400
     34 H34        -8.0784    0.3565   60.9584 H       1  ZINC000432833246    0.1400
     35 H35        -8.5976   -1.1107   53.7882 H       1  ZINC000432833246    0.1300
     36 H36       -10.7262   -1.1445   52.4085 H       1  ZINC000432833246    0.1000
     37 H37       -11.7293   -1.1413   53.9561 H       1  ZINC000432833246    0.1000
     38 H38       -10.6874    1.0720   54.6269 H       1  ZINC000432833246    0.0900
     39 H39        -9.6843    1.0688   53.0792 H       1  ZINC000432833246    0.1000
     40 H40       -10.7996   -2.9616   55.3094 H       1  ZINC000432833246    0.1400
     41 H41       -13.3233   -3.6668   59.8363 H       1  ZINC000432833246    0.0800
     42 H42       -12.6352   -2.0164   59.7871 H       1  ZINC000432833246    0.0900
     43 H43       -16.1538   -1.1480   61.0165 H       1  ZINC000432833246    0.1300
     44 H44       -15.1624   -2.1612   63.1205 H       1  ZINC000432833246    0.1000
     45 H45       -13.8470   -2.9691   62.1114 H       1  ZINC000432833246    0.1300
     46 H46       -13.0647   -0.6936   61.3091 H       1  ZINC000432833246    0.0900
     47 H47       -14.3802    0.1145   62.3181 H       1  ZINC000432833246    0.1000
@<TRIPOS>BOND
     1     1     2    2
     2     2    23   am
     3     2     3    1
     4     3     4    1
     5     3    27    1
     6     3    28    1
     7     4     5    1
     8     4     6    1
     9     4    22    1
    10     6     7    1
    11     6    29    1
    12     6    30    1
    13     7     8    1
    14     7    31    1
    15     8    21   ar
    16     8     9   ar
    17     9    15   ar
    18     9    10   ar
    19    10    11   ar
    20    10    32    1
    21    11    12   ar
    22    11    33    1
    23    12    13   ar
    24    12    34    1
    25    13    14    1
    26    13    15   ar
    27    15    16   ar
    28    16    17   ar
    29    17    18    1
    30    17    21   ar
    31    18    20    1
    32    18    19    1
    33    18    35    1
    34    19    20    1
    35    19    36    1
    36    19    37    1
    37    20    38    1
    38    20    39    1
    39    21    40    1
    40    22    23    1
    41    22    41    1
    42    22    42    1
    43    23    24    1
    44    24    26    1
    45    24    25    1
    46    24    43    1
    47    25    26    1
    48    25    44    1
    49    25    45    1
    50    26    46    1
    51    26    47    1
@<TRIPOS>SUBSTRUCTURE
     1 ZINC000432833246        1 TEMP              0 ****  ****    0 ROOT


##########                                Name:    ZINC000123469372
##########                DOCK_Rotatable_Bonds:                   7
##########                         Heavy_Atoms:                  25
##########                    Molecular_Weight:             341.382
##########                DOCK_Rotatable_Bonds:                   7
##########                       Formal_Charge:          -0.0300001
##########                     HBond_Acceptors:                   5
##########                        HBond_Donors:                   2
##########                         Heavy_Atoms:                  25
##########                          Grid_Score:          -30.412663
##########                     Grid_vdw_energy:          -29.836664
##########                      Grid_es_energy:           -0.575998
##########           Internal_energy_repulsive:            7.138875

@<TRIPOS>MOLECULE
ZINC000123469372
 45 47 1 0 0
SMALL
USER_CHARGES


@<TRIPOS>ATOM
      1 C1          0.1626    1.9125   49.2170 C.3     1  ZINC000123469372   -0.1700
      2 C2         -0.9227    2.1280   48.1603 C.3     1  ZINC000123469372    0.1500
      3 H3         -0.8556    3.1445   47.7725 H       1  ZINC000123469372    0.0900
      4 C4         -0.7255    1.1316   47.0161 C.3     1  ZINC000123469372   -0.1600
      5 C5         -1.0117    1.8238   45.6821 C.3     1  ZINC000123469372    0.1500
      6 H6         -0.5241    2.7985   45.6665 H       1  ZINC000123469372    0.1100
      7 O7         -2.4220    1.9941   45.5265 O.3     1  ZINC000123469372   -0.5500
      8 C8         -0.4804    0.9784   44.5533 C.ar    1  ZINC000123469372   -0.1200
      9 C9          0.8165    1.1550   44.1086 C.ar    1  ZINC000123469372   -0.1100
     10 C10         1.3038    0.3794   43.0732 C.ar    1  ZINC000123469372   -0.1200
     11 C11         0.4943   -0.5729   42.4827 C.ar    1  ZINC000123469372   -0.1200
     12 C12        -0.8023   -0.7501   42.9280 C.ar    1  ZINC000123469372   -0.1200
     13 C13        -1.2882    0.0224   43.9663 C.ar    1  ZINC000123469372   -0.1100
     14 N14        -2.2410    1.9222   48.7652 N.am    1  ZINC000123469372   -0.7100
     15 C15        -2.8805    2.9522   49.3539 C.2     1  ZINC000123469372    0.5700
     16 O16        -2.3622    4.0531   49.3843 O.2     1  ZINC000123469372   -0.5400
     17 C17        -4.1973    2.7472   49.9563 C.2     1  ZINC000123469372   -0.2200
     18 C18        -4.6824    1.4920   50.1221 C.2     1  ZINC000123469372    0.0000
     19 C19        -6.0208    1.3445   50.7148 C.ar    1  ZINC000123469372   -0.1200
     20 C20        -6.4608    0.1235   51.2238 C.ar    1  ZINC000123469372   -0.0900
     21 C21        -7.7262    0.0308   51.7711 C.ar    1  ZINC000123469372    0.0700
     22 F22        -8.1598   -1.1488   52.2667 F       1  ZINC000123469372   -0.1400
     23 C23        -8.5532    1.1437   51.8144 C.ar    1  ZINC000123469372   -0.1100
     24 C24        -8.1252    2.3588   51.3115 C.ar    1  ZINC000123469372   -0.1200
     25 C25        -6.8617    2.4701   50.7604 C.ar    1  ZINC000123469372    0.1300
     26 O26        -6.4135    3.6477   50.2587 O.3     1  ZINC000123469372   -0.3000
     27 C27        -5.0181    3.9297   50.4010 C.3     1  ZINC000123469372    0.1100
     28 H28         1.1435    2.0656   48.7669 H       1  ZINC000123469372    0.0700
     29 H29         0.0220    2.6224   50.0321 H       1  ZINC000123469372    0.0600
     30 H30         0.0955    0.8961   49.6048 H       1  ZINC000123469372    0.0600
     31 H31         0.3021    0.7682   47.0238 H       1  ZINC000123469372    0.0900
     32 H32        -1.4087    0.2920   47.1437 H       1  ZINC000123469372    0.0800
     33 H33        -2.6834    2.3396   44.6620 H       1  ZINC000123469372    0.3700
     34 H34         1.4489    1.8990   44.5699 H       1  ZINC000123469372    0.1200
     35 H35         2.3169    0.5180   42.7253 H       1  ZINC000123469372    0.1200
     36 H36         0.8748   -1.1782   41.6733 H       1  ZINC000123469372    0.1200
     37 H37        -1.4348   -1.4940   42.4665 H       1  ZINC000123469372    0.1200
     38 H38        -2.3012   -0.1161   44.3142 H       1  ZINC000123469372    0.1200
     39 H39        -2.6536    1.0446   48.7422 H       1  ZINC000123469372    0.4000
     40 H40        -4.1048    0.6280   49.8282 H       1  ZINC000123469372    0.1500
     41 H41        -5.8176   -0.7435   51.1903 H       1  ZINC000123469372    0.1500
     42 H42        -9.5403    1.0604   52.2443 H       1  ZINC000123469372    0.1500
     43 H43        -8.7766    3.2194   51.3492 H       1  ZINC000123469372    0.1500
     44 H44        -4.8006    4.1553   51.4449 H       1  ZINC000123469372    0.0800
     45 H45        -4.7606    4.7933   49.7878 H       1  ZINC000123469372    0.1100
@<TRIPOS>BOND
     1     1     2    1
     2     1    28    1
     3     1    29    1
     4     1    30    1
     5     2     3    1
     6     2     4    1
     7     2    14    1
     8     4     5    1
     9     4    31    1
    10     4    32    1
    11     5     6    1
    12     5     7    1
    13     5     8    1
    14     7    33    1
    15     8    13   ar
    16     8     9   ar
    17     9    10   ar
    18     9    34    1
    19    10    11   ar
    20    10    35    1
    21    11    12   ar
    22    11    36    1
    23    12    13   ar
    24    12    37    1
    25    13    38    1
    26    14    15   am
    27    14    39    1
    28    15    16    2
    29    15    17    1
    30    17    27    1
    31    17    18    2
    32    18    19    1
    33    18    40    1
    34    19    25   ar
    35    19    20   ar
    36    20    21   ar
    37    20    41    1
    38    21    22    1
    39    21    23   ar
    40    23    24   ar
    41    23    42    1
    42    24    25   ar
    43    24    43    1
    44    25    26    1
    45    26    27    1
    46    27    44    1
    47    27    45    1
@<TRIPOS>SUBSTRUCTURE
     1 ZINC000123469372        1 TEMP              0 ****  ****    0 ROOT


##########                                Name:    ZINC000163855860
##########                DOCK_Rotatable_Bonds:                   6
##########                         Heavy_Atoms:                  28
##########                    Molecular_Weight:             398.483
##########                DOCK_Rotatable_Bonds:                   6
##########                       Formal_Charge:          -0.0100004
##########                     HBond_Acceptors:                   7
##########                        HBond_Donors:                   1
##########                         Heavy_Atoms:                  28
##########                          Grid_Score:          -30.403669
##########                     Grid_vdw_energy:          -29.717541
##########                      Grid_es_energy:           -0.686128
##########           Internal_energy_repulsive:           15.496503

@<TRIPOS>MOLECULE
ZINC000163855860
 50 53 1 0 0
SMALL
USER_CHARGES


@<TRIPOS>ATOM
      1 C1         -4.2879    3.3108   49.5870 C.3     1  ZINC000163855860   -0.1300
      2 C2         -3.7716    3.3726   51.0015 C.ar    1  ZINC000163855860   -0.0600
      3 C3         -2.4142    3.2476   51.2523 C.ar    1  ZINC000163855860    0.1400
      4 N4         -1.5205    3.0643   50.1911 N.am    1  ZINC000163855860   -0.6700
      5 C5         -1.3620    1.8413   49.6470 C.2     1  ZINC000163855860    0.5100
      6 O6         -1.9940    0.8998   50.0773 O.2     1  ZINC000163855860   -0.5100
      7 C7         -0.3997    1.6440   48.5043 C.3     1  ZINC000163855860   -0.1300
      8 C8         -1.0831    0.8424   47.3947 C.3     1  ZINC000163855860   -0.1100
      9 H9         -1.4748   -0.0993   47.7794 H       1  ZINC000163855860    0.1100
     10 C10        -2.2026    1.6721   46.7257 C.3     1  ZINC000163855860    0.0600
     11 O11        -2.1659    1.2694   45.3245 O.3     1  ZINC000163855860   -0.3500
     12 C12        -0.9149    0.9333   44.9788 C.2     1  ZINC000163855860    0.4800
     13 O13        -0.4907    0.9045   43.8479 O.2     1  ZINC000163855860   -0.4500
     14 C14        -0.1138    0.5952   46.2174 C.3     1  ZINC000163855860   -0.1800
     15 C15        -1.9400    3.3102   52.5573 C.ar    1  ZINC000163855860   -0.1100
     16 C16        -2.8184    3.4921   53.6087 C.ar    1  ZINC000163855860   -0.1100
     17 C17        -4.1725    3.6128   53.3700 C.ar    1  ZINC000163855860   -0.1000
     18 C18        -4.6587    3.5509   52.0631 C.ar    1  ZINC000163855860   -0.1100
     19 C19        -6.1088    3.6805   51.8044 C.2     1  ZINC000163855860    0.5700
     20 O20        -6.6283    4.7793   51.7932 O.2     1  ZINC000163855860   -0.5300
     21 N21        -6.8544    2.5803   51.5809 N.am    1  ZINC000163855860   -0.6100
     22 C22        -6.2459    1.2415   51.5899 C.3     1  ZINC000163855860    0.1200
     23 C23        -6.8381    0.4499   52.7664 C.3     1  ZINC000163855860   -0.0600
     24 C24        -8.3401    0.6392   52.7830 C.2     1  ZINC000163855860   -0.1700
     25 C25        -9.0031    1.6264   52.1514 C.2     1  ZINC000163855860   -0.1300
     26 C26       -10.3817    1.5832   52.3336 C.2     1  ZINC000163855860   -0.1200
     27 C27       -10.8313    0.5858   53.0886 C.2     1  ZINC000163855860   -0.2100
     28 S28        -9.4796   -0.3945   53.6359 S.3     1  ZINC000163855860    0.1100
     29 C29        -8.2961    2.6873   51.3157 C.3     1  ZINC000163855860    0.1700
     30 H30        -4.6058    2.2931   49.3604 H       1  ZINC000163855860    0.0700
     31 H31        -5.1348    3.9885   49.4794 H       1  ZINC000163855860    0.0900
     32 H32        -3.4964    3.6061   48.8982 H       1  ZINC000163855860    0.0700
     33 H33        -1.0152    3.8174   49.8469 H       1  ZINC000163855860    0.4100
     34 H34         0.4772    1.1011   48.8574 H       1  ZINC000163855860    0.1100
     35 H35        -0.0935    2.6150   48.1153 H       1  ZINC000163855860    0.1100
     36 H36        -1.9952    2.7379   46.8210 H       1  ZINC000163855860    0.0800
     37 H37        -3.1701    1.4307   47.1658 H       1  ZINC000163855860    0.1200
     38 H38         0.1971   -0.4492   46.1947 H       1  ZINC000163855860    0.1200
     39 H39         0.7548    1.2489   46.2974 H       1  ZINC000163855860    0.1200
     40 H40        -0.8816    3.2167   52.7504 H       1  ZINC000163855860    0.1500
     41 H41        -2.4440    3.5403   54.6206 H       1  ZINC000163855860    0.1300
     42 H42        -4.8557    3.7548   54.1943 H       1  ZINC000163855860    0.1300
     43 H43        -6.4697    0.7313   50.6531 H       1  ZINC000163855860    0.0800
     44 H44        -5.1664    1.3309   51.7123 H       1  ZINC000163855860    0.1000
     45 H45        -6.4145    0.8132   53.7027 H       1  ZINC000163855860    0.0900
     46 H46        -6.6055   -0.6084   52.6474 H       1  ZINC000163855860    0.0900
     47 H47       -11.0435    2.3127   51.8906 H       1  ZINC000163855860    0.1400
     48 H48       -11.8688    0.4052   53.3285 H       1  ZINC000163855860    0.1700
     49 H49        -8.6511    3.6781   51.5997 H       1  ZINC000163855860    0.1000
     50 H50        -8.4906    2.5150   50.2572 H       1  ZINC000163855860    0.0900
@<TRIPOS>BOND
     1     1     2    1
     2     1    30    1
     3     1    31    1
     4     1    32    1
     5     2    18   ar
     6     2     3   ar
     7     3     4    1
     8     3    15   ar
     9     4     5   am
    10     4    33    1
    11     5     6    2
    12     5     7    1
    13     7     8    1
    14     7    34    1
    15     7    35    1
    16     8     9    1
    17     8    14    1
    18     8    10    1
    19    10    11    1
    20    10    36    1
    21    10    37    1
    22    11    12    1
    23    12    13    2
    24    12    14    1
    25    14    38    1
    26    14    39    1
    27    15    16   ar
    28    15    40    1
    29    16    17   ar
    30    16    41    1
    31    17    18   ar
    32    17    42    1
    33    18    19    1
    34    19    20    2
    35    19    21   am
    36    21    29    1
    37    21    22    1
    38    22    23    1
    39    22    43    1
    40    22    44    1
    41    23    24    1
    42    23    45    1
    43    23    46    1
    44    24    28    1
    45    24    25    2
    46    25    26    1
    47    25    29    1
    48    26    27    2
    49    26    47    1
    50    27    28    1
    51    27    48    1
    52    29    49    1
    53    29    50    1
@<TRIPOS>SUBSTRUCTURE
     1 ZINC000163855860        1 TEMP              0 ****  ****    0 ROOT


##########                                Name:    ZINC001064463188
##########                DOCK_Rotatable_Bonds:                   6
##########                         Heavy_Atoms:                  25
##########                    Molecular_Weight:             342.441
##########                DOCK_Rotatable_Bonds:                   6
##########                       Formal_Charge:          -0.0100004
##########                     HBond_Acceptors:                   6
##########                        HBond_Donors:                   0
##########                         Heavy_Atoms:                  25
##########                          Grid_Score:          -30.392475
##########                     Grid_vdw_energy:          -30.148291
##########                      Grid_es_energy:           -0.244184
##########           Internal_energy_repulsive:           19.422144

@<TRIPOS>MOLECULE
ZINC001064463188
 51 54 1 0 0
SMALL
USER_CHARGES


@<TRIPOS>ATOM
      1 C1         -7.3466    0.4957   53.7291 C.3     1  ZINC001064463188    0.0400
      2 O2         -7.9660   -0.1134   54.8637 O.3     1  ZINC001064463188   -0.3000
      3 C3         -9.2345   -0.5632   54.7047 C.ar    1  ZINC001064463188    0.3900
      4 C4         -9.8911   -0.4095   53.4847 C.ar    1  ZINC001064463188   -0.2800
      5 C5        -11.1845   -0.8833   53.3673 C.ar    1  ZINC001064463188    0.2000
      6 N6        -11.7580   -1.4651   54.4096 N.ar    1  ZINC001064463188   -0.5800
      7 C7        -11.1090   -1.5972   55.5571 C.ar    1  ZINC001064463188    0.5300
      8 N8        -11.7419   -2.2115   56.6236 N.3     1  ZINC001064463188   -0.4500
      9 C9        -13.1739   -1.9214   56.6203 C.3     1  ZINC001064463188    0.0700
     10 C10       -13.6482   -1.5857   58.0393 C.3     1  ZINC001064463188   -0.1200
     11 C11       -13.5703   -2.7855   58.9640 C.3     1  ZINC001064463188    0.1400
     12 H12       -13.8588   -2.4951   59.9742 H       1  ZINC001064463188    0.0900
     13 C13       -14.4593   -3.9316   58.4770 C.3     1  ZINC001064463188   -0.1300
     14 C14       -13.5464   -4.7504   57.5473 C.3     1  ZINC001064463188   -0.1300
     15 C15       -12.1213   -4.2951   57.8799 C.3     1  ZINC001064463188    0.1200
     16 H16       -11.5307   -5.1489   58.2122 H       1  ZINC001064463188    0.0900
     17 C17       -11.4627   -3.6718   56.6395 C.3     1  ZINC001064463188    0.0600
     18 N18       -12.1588   -3.2705   58.9575 N.am    1  ZINC001064463188   -0.6000
     19 C19       -11.1396   -2.8744   59.7456 C.2     1  ZINC001064463188    0.5800
     20 O20       -10.0387   -3.3736   59.6124 O.2     1  ZINC001064463188   -0.5400
     21 C21       -11.3589   -1.8384   60.7666 C.2     1  ZINC001064463188   -0.2200
     22 C22       -10.5590   -0.7774   60.8198 C.2     1  ZINC001064463188    0.0000
     23 C23       -10.7836    0.2839   61.8659 C.3     1  ZINC001064463188   -0.1300
     24 C24        -9.4278   -0.6363   59.8341 C.3     1  ZINC001064463188   -0.1200
     25 C25        -8.2667    0.2832   60.2180 C.3     1  ZINC001064463188   -0.1900
     26 C26        -8.0741   -1.2347   60.2217 C.3     1  ZINC001064463188   -0.1600
     27 N27        -9.8671   -1.1613   55.7069 N.ar    1  ZINC001064463188   -0.5900
     28 H28        -7.9287    1.3640   53.4199 H       1  ZINC001064463188    0.0600
     29 H29        -6.3365    0.8102   53.9917 H       1  ZINC001064463188    0.1000
     30 H30        -7.3023   -0.2222   52.9102 H       1  ZINC001064463188    0.0600
     31 H31        -9.4006    0.0693   52.6501 H       1  ZINC001064463188    0.1500
     32 H32       -11.7214   -0.7796   52.4360 H       1  ZINC001064463188    0.1800
     33 H33       -13.3692   -1.0734   55.9640 H       1  ZINC001064463188    0.0800
     34 H34       -13.7180   -2.7920   56.2540 H       1  ZINC001064463188    0.0600
     35 H35       -13.0249   -0.7871   58.4415 H       1  ZINC001064463188    0.0800
     36 H36       -14.6807   -1.2390   57.9950 H       1  ZINC001064463188    0.0800
     37 H37       -14.7915   -4.5402   59.3180 H       1  ZINC001064463188    0.0800
     38 H38       -15.3149   -3.5424   57.9252 H       1  ZINC001064463188    0.0900
     39 H39       -13.6596   -5.8157   57.7486 H       1  ZINC001064463188    0.0800
     40 H40       -13.7783   -4.5353   56.5043 H       1  ZINC001064463188    0.0800
     41 H41       -11.8842   -4.1183   55.7389 H       1  ZINC001064463188    0.0700
     42 H42       -10.3877   -3.8494   56.6687 H       1  ZINC001064463188    0.0900
     43 H43       -12.1696   -1.9396   61.4731 H       1  ZINC001064463188    0.1200
     44 H44       -10.2140    0.0373   62.7619 H       1  ZINC001064463188    0.0800
     45 H45       -10.4549    1.2491   61.4806 H       1  ZINC001064463188    0.0800
     46 H46       -11.8444    0.3330   62.1117 H       1  ZINC001064463188    0.0700
     47 H47        -9.7129   -0.6753   58.7827 H       1  ZINC001064463188    0.1400
     48 H48        -7.7878    0.8494   59.4192 H       1  ZINC001064463188    0.1000
     49 H49        -8.3210    0.7860   61.1835 H       1  ZINC001064463188    0.1000
     50 H50        -8.0017   -1.7304   61.1897 H       1  ZINC001064463188    0.0900
     51 H51        -7.4684   -1.6670   59.4253 H       1  ZINC001064463188    0.1000
@<TRIPOS>BOND
     1     1     2    1
     2     1    28    1
     3     1    29    1
     4     1    30    1
     5     2     3    1
     6     3    27   ar
     7     3     4   ar
     8     4     5   ar
     9     4    31    1
    10     5     6   ar
    11     5    32    1
    12     6     7   ar
    13     7     8    1
    14     7    27   ar
    15     8    17    1
    16     8     9    1
    17     9    10    1
    18     9    33    1
    19     9    34    1
    20    10    11    1
    21    10    35    1
    22    10    36    1
    23    11    12    1
    24    11    18    1
    25    11    13    1
    26    13    14    1
    27    13    37    1
    28    13    38    1
    29    14    15    1
    30    14    39    1
    31    14    40    1
    32    15    16    1
    33    15    17    1
    34    15    18    1
    35    17    41    1
    36    17    42    1
    37    18    19   am
    38    19    20    2
    39    19    21    1
    40    21    22    2
    41    21    43    1
    42    22    23    1
    43    22    24    1
    44    23    44    1
    45    23    45    1
    46    23    46    1
    47    24    26    1
    48    24    25    1
    49    24    47    1
    50    25    26    1
    51    25    48    1
    52    25    49    1
    53    26    50    1
    54    26    51    1
@<TRIPOS>SUBSTRUCTURE
     1 ZINC001064463188        1 TEMP              0 ****  ****    0 ROOT


##########                                Name:    ZINC000477589488
##########                DOCK_Rotatable_Bonds:                   6
##########                         Heavy_Atoms:                  32
##########                    Molecular_Weight:             423.517
##########                DOCK_Rotatable_Bonds:                   6
##########                       Formal_Charge:        -8.19564e-07
##########                     HBond_Acceptors:                   6
##########                        HBond_Donors:                   1
##########                         Heavy_Atoms:                  32
##########                          Grid_Score:          -30.391752
##########                     Grid_vdw_energy:          -30.169746
##########                      Grid_es_energy:           -0.222005
##########           Internal_energy_repulsive:           21.818787

@<TRIPOS>MOLECULE
ZINC000477589488
 57 61 1 0 0
SMALL
USER_CHARGES


@<TRIPOS>ATOM
      1 O1        -11.0838    1.6573   55.7391 O.2     1  ZINC000477589488   -0.5800
      2 C2        -10.6902    0.6490   55.1851 C.2     1  ZINC000477589488    0.7100
      3 N3        -10.7569   -0.5383   55.8193 N.am    1  ZINC000477589488   -0.7400
      4 C4        -11.2982   -0.6132   57.1786 C.3     1  ZINC000477589488    0.2500
      5 H5        -11.9154    0.2640   57.3728 H       1  ZINC000477589488    0.1100
      6 C6        -10.1636   -0.6585   58.1694 C.ar    1  ZINC000477589488   -0.0900
      7 C7         -9.4936    0.5028   58.5063 C.ar    1  ZINC000477589488   -0.1000
      8 C8         -8.4528    0.4614   59.4151 C.ar    1  ZINC000477589488   -0.1200
      9 C9         -8.0824   -0.7413   59.9874 C.ar    1  ZINC000477589488   -0.1200
     10 C10        -8.7530   -1.9023   59.6512 C.ar    1  ZINC000477589488   -0.1200
     11 C11        -9.7966   -1.8602   58.7455 C.ar    1  ZINC000477589488   -0.1000
     12 C12       -12.1365   -1.8578   57.3176 C.ar    1  ZINC000477589488   -0.0700
     13 C13       -13.0982   -1.9513   58.3376 C.ar    1  ZINC000477589488   -0.0400
     14 C14       -13.3034   -0.8987   59.2460 C.ar    1  ZINC000477589488   -0.1100
     15 C15       -14.2443   -1.0245   60.2211 C.ar    1  ZINC000477589488   -0.1100
     16 C16       -15.0098   -2.1839   60.3345 C.ar    1  ZINC000477589488   -0.1100
     17 C17       -14.8386   -3.2236   59.4733 C.ar    1  ZINC000477589488   -0.1100
     18 C18       -13.8770   -3.1301   58.4526 C.ar    1  ZINC000477589488   -0.0500
     19 C19       -13.6720   -4.1824   57.5445 C.ar    1  ZINC000477589488   -0.1000
     20 C20       -12.7317   -4.0559   56.5683 C.ar    1  ZINC000477589488   -0.1100
     21 C21       -11.9696   -2.8952   56.4522 C.ar    1  ZINC000477589488   -0.1100
     22 N22       -10.1923    0.7180   53.9346 N.am    1  ZINC000477589488   -0.6300
     23 C23       -10.1049    2.0043   53.2267 C.3     1  ZINC000477589488    0.1300
     24 C24        -8.6784    2.1698   52.6921 C.3     1  ZINC000477589488    0.0500
     25 N25        -8.3203    0.9931   51.8888 N.3     1  ZINC000477589488   -0.4700
     26 C26        -7.0973    1.1770   51.2532 C.ar    1  ZINC000477589488    0.2500
     27 C27        -5.9146    1.1603   51.9915 C.ar    1  ZINC000477589488   -0.1300
     28 C28        -4.7220    1.3484   51.3106 C.ar    1  ZINC000477589488   -0.0900
     29 C29        -4.7782    1.5417   49.9376 C.ar    1  ZINC000477589488    0.0200
     30 N30        -5.9423    1.5426   49.3189 N.ar    1  ZINC000477589488   -0.2200
     31 N31        -7.0499    1.3636   49.9421 N.ar    1  ZINC000477589488   -0.2800
     32 C32        -8.3104   -0.2273   52.7065 C.3     1  ZINC000477589488    0.0400
     33 C33        -9.7163   -0.4901   53.2440 C.3     1  ZINC000477589488    0.1200
     34 H34       -10.4467   -1.3432   55.3758 H       1  ZINC000477589488    0.3900
     35 H35        -9.7830    1.4423   58.0592 H       1  ZINC000477589488    0.1100
     36 H36        -7.9289    1.3685   59.6779 H       1  ZINC000477589488    0.1200
     37 H37        -7.2688   -0.7737   60.6969 H       1  ZINC000477589488    0.1200
     38 H38        -8.4633   -2.8419   60.0979 H       1  ZINC000477589488    0.1200
     39 H39       -10.3206   -2.7673   58.4828 H       1  ZINC000477589488    0.1200
     40 H40       -12.7173    0.0053   59.1708 H       1  ZINC000477589488    0.1300
     41 H41       -14.4000   -0.2142   60.9178 H       1  ZINC000477589488    0.1300
     42 H42       -15.7496   -2.2582   61.1177 H       1  ZINC000477589488    0.1300
     43 H43       -15.4386   -4.1160   59.5738 H       1  ZINC000477589488    0.1300
     44 H44       -14.2570   -5.0869   57.6208 H       1  ZINC000477589488    0.1300
     45 H45       -12.5759   -4.8665   55.8718 H       1  ZINC000477589488    0.1300
     46 H46       -11.2304   -2.8205   55.6683 H       1  ZINC000477589488    0.1200
     47 H47       -10.8107    2.0137   52.3960 H       1  ZINC000477589488    0.0800
     48 H48       -10.3346    2.8175   53.9152 H       1  ZINC000477589488    0.1100
     49 H49        -8.6240    3.0641   52.0713 H       1  ZINC000477589488    0.1000
     50 H50        -7.9854    2.2641   53.5281 H       1  ZINC000477589488    0.0600
     51 H51        -5.9274    1.0059   53.0604 H       1  ZINC000477589488    0.1500
     52 H52        -3.7770    1.3451   51.8334 H       1  ZINC000477589488    0.1500
     53 H53        -3.8681    1.6917   49.3759 H       1  ZINC000477589488    0.1700
     54 H54        -7.9893   -1.0714   52.0961 H       1  ZINC000477589488    0.1000
     55 H55        -7.6225   -0.0996   53.5422 H       1  ZINC000477589488    0.0600
     56 H56        -9.6908   -1.3268   53.9420 H       1  ZINC000477589488    0.0800
     57 H57       -10.3875   -0.7202   52.4166 H       1  ZINC000477589488    0.0900
@<TRIPOS>BOND
     1     1     2    2
     2     2     3   am
     3     2    22   am
     4     3     4    1
     5     3    34    1
     6     4     5    1
     7     4     6    1
     8     4    12    1
     9     6    11   ar
    10     6     7   ar
    11     7     8   ar
    12     7    35    1
    13     8     9   ar
    14     8    36    1
    15     9    10   ar
    16     9    37    1
    17    10    11   ar
    18    10    38    1
    19    11    39    1
    20    12    21   ar
    21    12    13   ar
    22    13    18   ar
    23    13    14   ar
    24    14    15   ar
    25    14    40    1
    26    15    16   ar
    27    15    41    1
    28    16    17   ar
    29    16    42    1
    30    17    18   ar
    31    17    43    1
    32    18    19   ar
    33    19    20   ar
    34    19    44    1
    35    20    21   ar
    36    20    45    1
    37    21    46    1
    38    22    33    1
    39    22    23    1
    40    23    24    1
    41    23    47    1
    42    23    48    1
    43    24    25    1
    44    24    49    1
    45    24    50    1
    46    25    26    1
    47    25    32    1
    48    26    31   ar
    49    26    27   ar
    50    27    28   ar
    51    27    51    1
    52    28    29   ar
    53    28    52    1
    54    29    30   ar
    55    29    53    1
    56    30    31   ar
    57    32    33    1
    58    32    54    1
    59    32    55    1
    60    33    56    1
    61    33    57    1
@<TRIPOS>SUBSTRUCTURE
     1 ZINC000477589488        1 TEMP              0 ****  ****    0 ROOT


##########                                Name:    ZINC001078110631
##########                DOCK_Rotatable_Bonds:                   7
##########                         Heavy_Atoms:                  25
##########                    Molecular_Weight:             353.369
##########                DOCK_Rotatable_Bonds:                   7
##########                       Formal_Charge:           0.0100006
##########                     HBond_Acceptors:                   8
##########                        HBond_Donors:                   2
##########                         Heavy_Atoms:                  25
##########                          Grid_Score:          -30.315638
##########                     Grid_vdw_energy:          -30.311934
##########                      Grid_es_energy:           -0.003704
##########           Internal_energy_repulsive:            5.907526

@<TRIPOS>MOLECULE
ZINC001078110631
 46 48 1 0 0
SMALL
USER_CHARGES


@<TRIPOS>ATOM
      1 O1        -11.1894   -0.9798   54.3151 O.2     1  ZINC001078110631   -0.5100
      2 C2        -10.1476   -1.2299   54.8901 C.2     1  ZINC001078110631    0.5600
      3 N3         -8.9702   -1.0549   54.2579 N.am    1  ZINC001078110631   -0.7200
      4 C4         -8.9459   -0.5690   52.8760 C.3     1  ZINC001078110631    0.1500
      5 H5         -9.7145   -1.0685   52.2862 H       1  ZINC001078110631    0.1200
      6 C6         -7.5540   -0.8020   52.2503 C.3     1  ZINC001078110631    0.0300
      7 N7         -7.3216    0.3932   51.3990 N.3     1  ZINC001078110631   -0.5000
      8 C8         -5.8890    0.5785   51.1317 C.3     1  ZINC001078110631    0.0300
      9 C9         -5.7024    1.6968   50.1043 C.3     1  ZINC001078110631    0.1300
     10 N10        -4.2773    2.0128   49.9798 N.am    1  ZINC001078110631   -0.6200
     11 C11        -3.1945    1.0381   50.1575 C.3     1  ZINC001078110631    0.1000
     12 C12        -1.9469    1.6872   49.5183 C.3     1  ZINC001078110631   -0.1300
     13 C13        -2.2823    3.1925   49.6301 C.3     1  ZINC001078110631   -0.1600
     14 C14        -3.7937    3.2312   49.6827 C.2     1  ZINC001078110631    0.5200
     15 O15        -4.4704    4.2195   49.4918 O.2     1  ZINC001078110631   -0.5200
     16 C16        -7.8643    1.5217   52.1984 C.3     1  ZINC001078110631    0.0000
     17 C17        -9.1528    0.9592   52.8417 C.3     1  ZINC001078110631    0.1000
     18 H18        -9.2716    1.3478   53.8532 H       1  ZINC001078110631    0.0700
     19 O19       -10.2916    1.2930   52.0456 O.3     1  ZINC001078110631   -0.5500
     20 C20       -10.1722   -1.7193   56.2821 C.ar    1  ZINC001078110631   -0.1900
     21 C21       -10.7509   -2.9550   56.5810 C.ar    1  ZINC001078110631   -0.0300
     22 C22       -10.7712   -3.4072   57.8824 C.ar    1  ZINC001078110631   -0.1700
     23 C23       -10.2186   -2.6389   58.8965 C.ar    1  ZINC001078110631    0.1600
     24 F24       -10.2422   -3.0888   60.1702 F       1  ZINC001078110631   -0.1200
     25 C25        -9.6422   -1.4124   58.6089 C.ar    1  ZINC001078110631   -0.2000
     26 C26        -9.6107   -0.9499   57.3073 C.ar    1  ZINC001078110631    0.2000
     27 F27        -9.0486    0.2461   57.0268 F       1  ZINC001078110631   -0.1000
     28 H28        -8.1390   -1.2505   54.7180 H       1  ZINC001078110631    0.4000
     29 H29        -6.7936   -0.8681   53.0284 H       1  ZINC001078110631    0.0500
     30 H30        -7.5571   -1.7068   51.6425 H       1  ZINC001078110631    0.1000
     31 H31        -5.3784    0.8461   52.0568 H       1  ZINC001078110631    0.0400
     32 H32        -5.4696   -0.3482   50.7402 H       1  ZINC001078110631    0.0800
     33 H33        -6.0880    1.3709   49.1383 H       1  ZINC001078110631    0.0900
     34 H34        -6.2442    2.5844   50.4310 H       1  ZINC001078110631    0.0800
     35 H35        -3.0226    0.8544   51.2180 H       1  ZINC001078110631    0.0700
     36 H36        -3.4382    0.1063   49.6471 H       1  ZINC001078110631    0.0800
     37 H37        -1.0477    1.4448   50.0847 H       1  ZINC001078110631    0.0900
     38 H38        -1.8421    1.3872   48.4756 H       1  ZINC001078110631    0.0800
     39 H39        -1.8542    3.6121   50.5405 H       1  ZINC001078110631    0.1100
     40 H40        -1.9200    3.7302   48.7539 H       1  ZINC001078110631    0.1000
     41 H41        -7.1525    1.8191   52.9683 H       1  ZINC001078110631    0.0600
     42 H42        -8.1010    2.3665   51.5515 H       1  ZINC001078110631    0.0900
     43 H43       -10.2938    0.8820   51.1703 H       1  ZINC001078110631    0.3800
     44 H44       -11.1821   -3.5549   55.7933 H       1  ZINC001078110631    0.1500
     45 H45       -11.2189   -4.3624   58.1135 H       1  ZINC001078110631    0.1500
     46 H46        -9.2136   -0.8186   59.4027 H       1  ZINC001078110631    0.1600
@<TRIPOS>BOND
     1     1     2    2
     2     2     3   am
     3     2    20    1
     4     3     4    1
     5     3    28    1
     6     4     5    1
     7     4    17    1
     8     4     6    1
     9     6     7    1
    10     6    29    1
    11     6    30    1
    12     7     8    1
    13     7    16    1
    14     8     9    1
    15     8    31    1
    16     8    32    1
    17     9    10    1
    18     9    33    1
    19     9    34    1
    20    10    14   am
    21    10    11    1
    22    11    12    1
    23    11    35    1
    24    11    36    1
    25    12    13    1
    26    12    37    1
    27    12    38    1
    28    13    14    1
    29    13    39    1
    30    13    40    1
    31    14    15    2
    32    16    17    1
    33    16    41    1
    34    16    42    1
    35    17    18    1
    36    17    19    1
    37    19    43    1
    38    20    26   ar
    39    20    21   ar
    40    21    22   ar
    41    21    44    1
    42    22    23   ar
    43    22    45    1
    44    23    24    1
    45    23    25   ar
    46    25    26   ar
    47    25    46    1
    48    26    27    1
@<TRIPOS>SUBSTRUCTURE
     1 ZINC001078110631        1 TEMP              0 ****  ****    0 ROOT


##########                                Name:    ZINC000545381384
##########                DOCK_Rotatable_Bonds:                   6
##########                         Heavy_Atoms:                  30
##########                    Molecular_Weight:             405.543
##########                DOCK_Rotatable_Bonds:                   6
##########                       Formal_Charge:                0.05
##########                     HBond_Acceptors:                   6
##########                        HBond_Donors:                   1
##########                         Heavy_Atoms:                  30
##########                          Grid_Score:          -30.309113
##########                     Grid_vdw_energy:          -30.131857
##########                      Grid_es_energy:           -0.177255
##########           Internal_energy_repulsive:           14.863536

@<TRIPOS>MOLECULE
ZINC000545381384
 61 64 1 0 0
SMALL
USER_CHARGES


@<TRIPOS>ATOM
      1 C1        -14.6862   -2.5136   60.1479 C.3     1  ZINC000545381384   -0.2000
      2 C2        -13.1870   -2.6063   60.4389 C.3     1  ZINC000545381384    0.0500
      3 N3        -12.4356   -1.9832   59.3411 N.3     1  ZINC000545381384   -0.5300
      4 C4        -12.1741   -2.9517   58.2647 C.3     1  ZINC000545381384    0.0500
      5 C5        -11.7401   -2.1857   57.0154 C.3     1  ZINC000545381384   -0.0700
      6 C6        -10.6233   -1.2295   57.3594 C.ar    1  ZINC000545381384    0.1800
      7 C7        -10.3670   -0.8686   58.6769 C.ar    1  ZINC000545381384   -0.0800
      8 C8        -11.1752   -1.4112   59.8254 C.3     1  ZINC000545381384    0.0900
      9 C9         -9.3321    0.0195   58.9594 C.ar    1  ZINC000545381384   -0.0700
     10 C10        -9.0372    0.4251   60.3503 C.2     1  ZINC000545381384    0.5800
     11 O11        -8.2635   -0.2281   61.0228 O.2     1  ZINC000545381384   -0.4800
     12 N12        -9.6263    1.5191   60.8723 N.am    1  ZINC000545381384   -0.6400
     13 C13        -9.3471    1.9024   62.1826 C.2     1  ZINC000545381384    0.3000
     14 C14        -9.7912    1.2876   63.3135 C.2     1  ZINC000545381384   -0.2700
     15 C15        -9.2817    1.9878   64.4101 C.2     1  ZINC000545381384    0.1000
     16 C16        -9.5226    1.6517   65.8592 C.3     1  ZINC000545381384   -0.0300
     17 C17        -8.3153    0.8932   66.4143 C.3     1  ZINC000545381384   -0.0600
     18 C18        -8.6648    0.3119   67.7857 C.3     1  ZINC000545381384   -0.1500
     19 C19        -7.9430   -0.2423   65.4589 C.3     1  ZINC000545381384   -0.1400
     20 C20        -7.1308    1.8516   66.5535 C.3     1  ZINC000545381384   -0.1400
     21 N21        -8.5597    2.9844   63.9657 N.2     1  ZINC000545381384   -0.2700
     22 N22        -8.5776    2.9539   62.5654 N.pl3   1  ZINC000545381384   -0.3900
     23 C23        -7.8951    3.8941   61.6730 C.3     1  ZINC000545381384    0.1000
     24 C24        -8.5696    0.5227   57.8773 C.ar    1  ZINC000545381384   -0.0700
     25 C25        -7.5118    1.4185   58.0789 C.ar    1  ZINC000545381384   -0.1100
     26 C26        -6.8034    1.8764   57.0088 C.ar    1  ZINC000545381384   -0.1000
     27 C27        -7.1182    1.4651   55.7152 C.ar    1  ZINC000545381384   -0.1000
     28 C28        -8.1400    0.5970   55.4836 C.ar    1  ZINC000545381384   -0.0900
     29 C29        -8.8941    0.1021   56.5637 C.ar    1  ZINC000545381384    0.1400
     30 N30        -9.9008   -0.7488   56.3686 N.ar    1  ZINC000545381384   -0.4600
     31 H31       -14.9684   -1.4679   60.0251 H       1  ZINC000545381384    0.0600
     32 H32       -14.9133   -3.0609   59.2331 H       1  ZINC000545381384    0.0600
     33 H33       -15.2449   -2.9456   60.9781 H       1  ZINC000545381384    0.0700
     34 H34       -12.9651   -2.0875   61.3715 H       1  ZINC000545381384    0.0900
     35 H35       -12.8984   -3.6536   60.5283 H       1  ZINC000545381384    0.0800
     36 H36       -11.3800   -3.6332   58.5704 H       1  ZINC000545381384    0.0500
     37 H37       -13.0820   -3.5157   58.0513 H       1  ZINC000545381384    0.0900
     38 H38       -11.3928   -2.8913   56.2607 H       1  ZINC000545381384    0.1000
     39 H39       -12.5881   -1.6252   56.6218 H       1  ZINC000545381384    0.1000
     40 H40       -11.3914   -0.6048   60.5263 H       1  ZINC000545381384    0.0900
     41 H41       -10.6012   -2.1842   60.3363 H       1  ZINC000545381384    0.0700
     42 H42       -10.2446    2.0397   60.3361 H       1  ZINC000545381384    0.4100
     43 H43       -10.4250    0.4142   63.3555 H       1  ZINC000545381384    0.1700
     44 H44        -9.6660    2.5714   66.4265 H       1  ZINC000545381384    0.0800
     45 H45       -10.4133    1.0294   65.9446 H       1  ZINC000545381384    0.0800
     46 H46        -9.5087   -0.3709   67.6866 H       1  ZINC000545381384    0.0500
     47 H47        -7.8047   -0.2285   68.1812 H       1  ZINC000545381384    0.0500
     48 H48        -8.9300    1.1208   68.4665 H       1  ZINC000545381384    0.0800
     49 H49        -7.6940    0.1718   64.4819 H       1  ZINC000545381384    0.0600
     50 H50        -7.0830   -0.7827   65.8544 H       1  ZINC000545381384    0.0600
     51 H51        -8.7869   -0.9251   65.3597 H       1  ZINC000545381384    0.0600
     52 H52        -7.3960    2.6606   67.2342 H       1  ZINC000545381384    0.0500
     53 H53        -6.2708    1.3112   66.9489 H       1  ZINC000545381384    0.0500
     54 H54        -6.8819    2.2658   65.5764 H       1  ZINC000545381384    0.0500
     55 H55        -6.8929    3.5253   61.4543 H       1  ZINC000545381384    0.0800
     56 H56        -8.4583    3.9878   60.7445 H       1  ZINC000545381384    0.0800
     57 H57        -7.8262    4.8688   62.1560 H       1  ZINC000545381384    0.1000
     58 H58        -7.2593    1.7447   59.0770 H       1  ZINC000545381384    0.1300
     59 H59        -5.9879    2.5671   57.1651 H       1  ZINC000545381384    0.1300
     60 H60        -6.5420    1.8417   54.8829 H       1  ZINC000545381384    0.1400
     61 H61        -8.3714    0.2891   54.4746 H       1  ZINC000545381384    0.1400
@<TRIPOS>BOND
     1     1     2    1
     2     1    31    1
     3     1    32    1
     4     1    33    1
     5     2     3    1
     6     2    34    1
     7     2    35    1
     8     3     8    1
     9     3     4    1
    10     4     5    1
    11     4    36    1
    12     4    37    1
    13     5     6    1
    14     5    38    1
    15     5    39    1
    16     6    30   ar
    17     6     7   ar
    18     7     8    1
    19     7     9   ar
    20     8    40    1
    21     8    41    1
    22     9    10    1
    23     9    24   ar
    24    10    11    2
    25    10    12   am
    26    12    13    1
    27    12    42    1
    28    13    22    1
    29    13    14    2
    30    14    15    1
    31    14    43    1
    32    15    16    1
    33    15    21    2
    34    16    17    1
    35    16    44    1
    36    16    45    1
    37    17    18    1
    38    17    19    1
    39    17    20    1
    40    18    46    1
    41    18    47    1
    42    18    48    1
    43    19    49    1
    44    19    50    1
    45    19    51    1
    46    20    52    1
    47    20    53    1
    48    20    54    1
    49    21    22    1
    50    22    23    1
    51    23    55    1
    52    23    56    1
    53    23    57    1
    54    24    29   ar
    55    24    25   ar
    56    25    26   ar
    57    25    58    1
    58    26    27   ar
    59    26    59    1
    60    27    28   ar
    61    27    60    1
    62    28    29   ar
    63    28    61    1
    64    29    30   ar
@<TRIPOS>SUBSTRUCTURE
     1 ZINC000545381384        1 TEMP              0 ****  ****    0 ROOT


##########                                Name:    ZINC000740930783
##########                DOCK_Rotatable_Bonds:                  11
##########                         Heavy_Atoms:                  27
##########                    Molecular_Weight:             413.257
##########                DOCK_Rotatable_Bonds:                  11
##########                       Formal_Charge:          -0.0100004
##########                     HBond_Acceptors:                   9
##########                        HBond_Donors:                   4
##########                         Heavy_Atoms:                  27
##########                          Grid_Score:          -30.203388
##########                     Grid_vdw_energy:          -30.582468
##########                      Grid_es_energy:            0.379081
##########           Internal_energy_repulsive:            8.935320

@<TRIPOS>MOLECULE
ZINC000740930783
 45 46 1 0 0
SMALL
USER_CHARGES


@<TRIPOS>ATOM
      1 C1        -14.8378   -3.1972   55.1674 C.3     1  ZINC000740930783    0.0200
      2 O2        -14.4033   -2.1516   56.0392 O.3     1  ZINC000740930783   -0.3000
      3 C3        -13.0612   -1.9899   56.1886 C.ar    1  ZINC000740930783    0.1200
      4 C4        -12.3471   -1.2540   55.2631 C.ar    1  ZINC000740930783   -0.1400
      5 C5        -10.9682   -1.0890   55.4194 C.ar    1  ZINC000740930783   -0.0800
      6 C6        -10.2008   -0.3031   54.4333 C.2     1  ZINC000740930783    0.5600
      7 O7        -10.0964   -0.6996   53.2887 O.2     1  ZINC000740930783   -0.5300
      8 N8         -9.6160    0.8538   54.8018 N.am    1  ZINC000740930783   -0.7200
      9 C9         -8.8529    1.6330   53.8234 C.3     1  ZINC000740930783    0.0900
     10 C10        -7.3751    1.2448   53.9032 C.3     1  ZINC000740930783    0.1400
     11 H11        -7.2891    0.1653   54.0266 H       1  ZINC000740930783    0.1200
     12 O12        -6.7697    1.9015   55.0187 O.3     1  ZINC000740930783   -0.5500
     13 C13        -6.6768    1.6626   52.6348 C.ar    1  ZINC000740930783   -0.1100
     14 C14        -6.1211    2.9239   52.5351 C.ar    1  ZINC000740930783   -0.1000
     15 C15        -5.4803    3.3074   51.3715 C.ar    1  ZINC000740930783   -0.1100
     16 C16        -5.3959    2.4297   50.3070 C.ar    1  ZINC000740930783   -0.1000
     17 C17        -5.9516    1.1678   50.4055 C.ar    1  ZINC000740930783   -0.1100
     18 C18        -6.5872    0.7814   51.5717 C.ar    1  ZINC000740930783   -0.0300
     19 Cl19       -7.2852   -0.8032   51.6962 Cl      1  ZINC000740930783   -0.0600
     20 C20       -10.3176   -1.6690   56.5109 C.ar    1  ZINC000740930783   -0.1000
     21 C21       -11.0363   -2.4027   57.4316 C.ar    1  ZINC000740930783   -0.0200
     22 Cl22      -10.2264   -3.1225   58.7879 Cl      1  ZINC000740930783   -0.0300
     23 C23       -12.4075   -2.5619   57.2787 C.ar    1  ZINC000740930783    0.0900
     24 O24       -13.1113   -3.2851   58.1878 O.3     1  ZINC000740930783   -0.2900
     25 C25       -13.6991   -2.5664   59.2739 C.3     1  ZINC000740930783    0.0400
     26 C26       -14.6028   -3.4859   60.0543 C.2     1  ZINC000740930783    0.5200
     27 N27       -14.5885   -3.4608   61.4017 N.am    1  ZINC000740930783   -0.8500
     28 O28       -15.3429   -4.2484   59.4698 O.2     1  ZINC000740930783   -0.5100
     29 H29       -14.4509   -3.0182   54.1642 H       1  ZINC000740930783    0.0600
     30 H30       -14.4666   -4.1541   55.5345 H       1  ZINC000740930783    0.0600
     31 H31       -15.9272   -3.2170   55.1385 H       1  ZINC000740930783    0.1100
     32 H32       -12.8533   -0.8073   54.4202 H       1  ZINC000740930783    0.1600
     33 H33        -9.7003    1.1707   55.7146 H       1  ZINC000740930783    0.4100
     34 H34        -9.2292    1.4265   52.8215 H       1  ZINC000740930783    0.0900
     35 H35        -8.9618    2.6955   54.0407 H       1  ZINC000740930783    0.0800
     36 H36        -6.7931    2.8668   54.9671 H       1  ZINC000740930783    0.3800
     37 H37        -6.1874    3.6103   53.3662 H       1  ZINC000740930783    0.1300
     38 H38        -5.0461    4.2932   51.2940 H       1  ZINC000740930783    0.1300
     39 H39        -4.8960    2.7301   49.3979 H       1  ZINC000740930783    0.1400
     40 H40        -5.8854    0.4822   49.5737 H       1  ZINC000740930783    0.1400
     41 H41        -9.2520   -1.5433   56.6337 H       1  ZINC000740930783    0.1500
     42 H42       -12.9129   -2.1889   59.9277 H       1  ZINC000740930783    0.0900
     43 H43       -14.2802   -1.7305   58.8843 H       1  ZINC000740930783    0.0900
     44 H44       -15.1710   -4.0518   61.9041 H       1  ZINC000740930783    0.4000
     45 H45       -13.9956   -2.8518   61.8692 H       1  ZINC000740930783    0.4100
@<TRIPOS>BOND
     1     1     2    1
     2     1    29    1
     3     1    30    1
     4     1    31    1
     5     2     3    1
     6     3    23   ar
     7     3     4   ar
     8     4     5   ar
     9     4    32    1
    10     5     6    1
    11     5    20   ar
    12     6     7    2
    13     6     8   am
    14     8     9    1
    15     8    33    1
    16     9    10    1
    17     9    34    1
    18     9    35    1
    19    10    11    1
    20    10    12    1
    21    10    13    1
    22    12    36    1
    23    13    18   ar
    24    13    14   ar
    25    14    15   ar
    26    14    37    1
    27    15    16   ar
    28    15    38    1
    29    16    17   ar
    30    16    39    1
    31    17    18   ar
    32    17    40    1
    33    18    19    1
    34    20    21   ar
    35    20    41    1
    36    21    22    1
    37    21    23   ar
    38    23    24    1
    39    24    25    1
    40    25    26    1
    41    25    42    1
    42    25    43    1
    43    26    27   am
    44    26    28    2
    45    27    44    1
    46    27    45    1
@<TRIPOS>SUBSTRUCTURE
     1 ZINC000740930783        1 TEMP              0 ****  ****    0 ROOT


##########                                Name:    ZINC000466160459
##########                DOCK_Rotatable_Bonds:                   9
##########                         Heavy_Atoms:                  30
##########                    Molecular_Weight:             420.512
##########                DOCK_Rotatable_Bonds:                   9
##########                       Formal_Charge:          -0.0300007
##########                     HBond_Acceptors:                  10
##########                        HBond_Donors:                   2
##########                         Heavy_Atoms:                  30
##########                          Grid_Score:          -30.185196
##########                     Grid_vdw_energy:          -30.838142
##########                      Grid_es_energy:            0.652946
##########           Internal_energy_repulsive:          101.740517

@<TRIPOS>MOLECULE
ZINC000466160459
 62 64 1 0 0
SMALL
USER_CHARGES


@<TRIPOS>ATOM
      1 C1         -6.6605    4.0117   58.3030 C.3     1  ZINC000466160459    0.0300
      2 O2         -7.0477    4.9809   59.2790 O.3     1  ZINC000466160459   -0.3900
      3 C3         -8.1939    4.6073   60.0463 C.3     1  ZINC000466160459    0.0500
      4 C4         -7.8801    3.3435   60.8496 C.3     1  ZINC000466160459    0.1200
      5 N5         -9.0570    2.9573   61.6318 N.am    1  ZINC000466160459   -0.7300
      6 C6         -9.2322    3.4501   62.8739 C.2     1  ZINC000466160459    0.5200
      7 O7         -8.4161    4.2146   63.3435 O.2     1  ZINC000466160459   -0.5200
      8 C8        -10.4420    3.0514   63.6792 C.3     1  ZINC000466160459   -0.1300
      9 H9        -11.2817    3.6952   63.4173 H       1  ZINC000466160459    0.1100
     10 C10       -10.1330    3.1964   65.1711 C.3     1  ZINC000466160459   -0.1000
     11 C11        -8.9329    2.3186   65.5329 C.3     1  ZINC000466160459   -0.1500
     12 C12        -9.2743    0.8521   65.2502 C.3     1  ZINC000466160459    0.1600
     13 H13       -10.0760    0.5291   65.9143 H       1  ZINC000466160459    0.0700
     14 C14        -8.0360   -0.0163   65.4808 C.3     1  ZINC000466160459   -0.1400
     15 N15        -9.7122    0.7294   63.8532 N.am    1  ZINC000466160459   -0.6200
     16 C16        -9.1271   -0.1591   63.0257 C.2     1  ZINC000466160459    0.7100
     17 O17        -8.2279   -0.8686   63.4332 O.2     1  ZINC000466160459   -0.5500
     18 N18        -9.5389   -0.2610   61.7464 N.am    1  ZINC000466160459   -0.7300
     19 C19        -8.9030   -1.2267   60.8469 C.3     1  ZINC000466160459    0.1600
     20 H20        -8.1641   -1.8055   61.4011 H       1  ZINC000466160459    0.1300
     21 C21        -8.2107   -0.4786   59.7049 C.3     1  ZINC000466160459   -0.1400
     22 C22        -9.2888    0.0987   58.7799 C.3     1  ZINC000466160459   -0.1400
     23 C23       -10.0070   -1.0578   58.0834 C.3     1  ZINC000466160459    0.1100
     24 N24       -10.4433   -2.0489   59.0590 N.am    1  ZINC000466160459   -0.5200
     25 C25       -11.4477   -2.9487   58.6771 C.2     1  ZINC000466160459    0.2800
     26 N26       -12.7369   -2.7887   58.8620 N.2     1  ZINC000466160459   -0.2600
     27 N27       -13.3955   -3.9091   58.3393 N.pl3   1  ZINC000466160459   -0.3800
     28 C28       -14.8431   -4.1338   58.3387 C.3     1  ZINC000466160459    0.1000
     29 C29       -12.4631   -4.7451   57.8359 C.2     1  ZINC000466160459    0.0700
     30 C30       -11.2508   -4.1762   58.0245 C.2     1  ZINC000466160459   -0.2900
     31 C31        -9.9466   -2.1523   60.2905 C.2     1  ZINC000466160459    0.4900
     32 O32       -10.3584   -3.0436   61.0026 O.2     1  ZINC000466160459   -0.4700
     33 C33       -10.8009    1.5936   63.3748 C.3     1  ZINC000466160459    0.1200
     34 H34        -5.7837    4.3697   57.7634 H       1  ZINC000466160459    0.0900
     35 H35        -6.4224    3.0711   58.7997 H       1  ZINC000466160459    0.0400
     36 H36        -7.4799    3.8549   57.6016 H       1  ZINC000466160459    0.0400
     37 H37        -8.4540    5.4164   60.7287 H       1  ZINC000466160459    0.0600
     38 H38        -9.0319    4.4134   59.3766 H       1  ZINC000466160459    0.0700
     39 H39        -7.6162    2.5355   60.1674 H       1  ZINC000466160459    0.0800
     40 H40        -7.0449    3.5386   61.5222 H       1  ZINC000466160459    0.0800
     41 H41        -9.7104    2.3468   61.2557 H       1  ZINC000466160459    0.4000
     42 H42        -9.9016    4.2380   65.3944 H       1  ZINC000466160459    0.0700
     43 H43       -11.0000    2.8845   65.7534 H       1  ZINC000466160459    0.0700
     44 H44        -8.0721    2.6139   64.9330 H       1  ZINC000466160459    0.1000
     45 H45        -8.6989    2.4403   66.5905 H       1  ZINC000466160459    0.0700
     46 H46        -7.6495    0.1611   66.4845 H       1  ZINC000466160459    0.0400
     47 H47        -8.3048   -1.0675   65.3756 H       1  ZINC000466160459    0.0800
     48 H48        -7.2716    0.2385   64.7468 H       1  ZINC000466160459    0.0600
     49 H49       -10.2565    0.3051   61.4213 H       1  ZINC000466160459    0.3900
     50 H50        -7.6040    0.3307   60.1111 H       1  ZINC000466160459    0.0900
     51 H51        -7.5776   -1.1673   59.1456 H       1  ZINC000466160459    0.0900
     52 H52       -10.0051    0.6734   59.3671 H       1  ZINC000466160459    0.0700
     53 H53        -8.8238    0.7428   58.0336 H       1  ZINC000466160459    0.1000
     54 H54       -10.8750   -0.6729   57.5481 H       1  ZINC000466160459    0.0900
     55 H55        -9.3279   -1.5274   57.3719 H       1  ZINC000466160459    0.0800
     56 H56       -15.2745   -3.7212   57.4267 H       1  ZINC000466160459    0.0700
     57 H57       -15.0447   -5.2041   58.3841 H       1  ZINC000466160459    0.0900
     58 H58       -15.2874   -3.6434   59.2048 H       1  ZINC000466160459    0.0900
     59 H59       -12.6520   -5.6974   57.3627 H       1  ZINC000466160459    0.1800
     60 H60       -10.2993   -4.5953   57.7318 H       1  ZINC000466160459    0.1500
     61 H61       -11.7272    1.3309   63.8859 H       1  ZINC000466160459    0.0900
     62 H62       -10.9249    1.4639   62.2997 H       1  ZINC000466160459    0.0700
@<TRIPOS>BOND
     1     1     2    1
     2     1    34    1
     3     1    35    1
     4     1    36    1
     5     2     3    1
     6     3     4    1
     7     3    37    1
     8     3    38    1
     9     4     5    1
    10     4    39    1
    11     4    40    1
    12     5     6   am
    13     5    41    1
    14     6     7    2
    15     6     8    1
    16     8     9    1
    17     8    33    1
    18     8    10    1
    19    10    11    1
    20    10    42    1
    21    10    43    1
    22    11    12    1
    23    11    44    1
    24    11    45    1
    25    12    13    1
    26    12    14    1
    27    12    15    1
    28    14    46    1
    29    14    47    1
    30    14    48    1
    31    15    16   am
    32    15    33    1
    33    16    17    2
    34    16    18   am
    35    18    19    1
    36    18    49    1
    37    19    20    1
    38    19    31    1
    39    19    21    1
    40    21    22    1
    41    21    50    1
    42    21    51    1
    43    22    23    1
    44    22    52    1
    45    22    53    1
    46    23    24    1
    47    23    54    1
    48    23    55    1
    49    24    25    1
    50    24    31   am
    51    25    30    1
    52    25    26    2
    53    26    27    1
    54    27    28    1
    55    27    29    1
    56    28    56    1
    57    28    57    1
    58    28    58    1
    59    29    30    2
    60    29    59    1
    61    30    60    1
    62    31    32    2
    63    33    61    1
    64    33    62    1
@<TRIPOS>SUBSTRUCTURE
     1 ZINC000466160459        1 TEMP              0 ****  ****    0 ROOT


##########                                Name:    ZINC001110536231
##########                DOCK_Rotatable_Bonds:                   8
##########                         Heavy_Atoms:                  24
##########                    Molecular_Weight:             329.442
##########                DOCK_Rotatable_Bonds:                   8
##########                       Formal_Charge:          -0.0400001
##########                     HBond_Acceptors:                   5
##########                        HBond_Donors:                   1
##########                         Heavy_Atoms:                  24
##########                          Grid_Score:          -30.184738
##########                     Grid_vdw_energy:          -28.555819
##########                      Grid_es_energy:           -1.628920
##########           Internal_energy_repulsive:           39.979149

@<TRIPOS>MOLECULE
ZINC001110536231
 51 53 1 0 0
SMALL
USER_CHARGES


@<TRIPOS>ATOM
      1 C1          4.5085    0.0471   50.5837 C.3     1  ZINC001110536231   -0.1300
      2 C2          4.1291    0.2023   52.0577 C.3     1  ZINC001110536231   -0.1000
      3 C3          2.9100    1.0806   52.1729 C.2     1  ZINC001110536231   -0.0200
      4 C4          2.7098    1.9349   53.3982 C.3     1  ZINC001110536231   -0.1300
      5 C5          2.0108    1.1020   51.1932 C.2     1  ZINC001110536231   -0.2400
      6 C6          0.8208    1.9594   51.3058 C.2     1  ZINC001110536231    0.5400
      7 O7          0.9417    3.1304   51.6112 O.2     1  ZINC001110536231   -0.5300
      8 N8         -0.4035    1.4473   51.0705 N.am    1  ZINC001110536231   -0.7300
      9 C9         -1.5884    2.3017   51.1809 C.3     1  ZINC001110536231    0.1100
     10 H10        -1.6475    2.7474   52.1738 H       1  ZINC001110536231    0.1000
     11 C11        -2.8728    1.4956   50.8679 C.3     1  ZINC001110536231   -0.1600
     12 C12        -3.4624    2.2197   49.6202 C.3     1  ZINC001110536231    0.0500
     13 H13        -4.1535    1.6308   49.0171 H       1  ZINC001110536231    0.1200
     14 C14        -4.0240    3.5683   50.1632 C.3     1  ZINC001110536231   -0.1200
     15 C15        -2.7502    4.3862   50.4880 C.3     1  ZINC001110536231   -0.1100
     16 C16        -1.5714    3.4078   50.0830 C.3     1  ZINC001110536231    0.0400
     17 H17        -0.6104    3.8838   49.8885 H       1  ZINC001110536231    0.1200
     18 N18        -2.2032    2.6696   48.9262 N.3     1  ZINC001110536231   -0.4900
     19 C19        -1.3750    1.5280   48.5150 C.3     1  ZINC001110536231    0.0600
     20 C20        -1.2721    1.4978   47.0118 C.ar    1  ZINC001110536231    0.0100
     21 C21        -1.0490    2.6633   46.2920 C.ar    1  ZINC001110536231   -0.2100
     22 C22        -0.9596    2.6005   44.9155 C.ar    1  ZINC001110536231    0.1400
     23 N23        -1.0834    1.4501   44.2815 N.ar    1  ZINC001110536231   -0.5400
     24 C24        -1.2966    0.3184   44.9324 C.ar    1  ZINC001110536231    0.3200
     25 O25        -1.4174   -0.8423   44.2402 O.3     1  ZINC001110536231   -0.3100
     26 C26        -0.8497   -0.8780   42.9293 C.3     1  ZINC001110536231    0.0400
     27 C27        -1.3924    0.3061   46.3178 C.ar    1  ZINC001110536231   -0.1700
     28 H28         5.3903   -0.5883   50.5005 H       1  ZINC001110536231    0.0500
     29 H29         3.6800   -0.4084   50.0413 H       1  ZINC001110536231    0.0700
     30 H30         4.7256    1.0273   50.1592 H       1  ZINC001110536231    0.0400
     31 H31         3.9120   -0.7780   52.4822 H       1  ZINC001110536231    0.0900
     32 H32         4.9577    0.6577   52.6001 H       1  ZINC001110536231    0.0600
     33 H33         3.1725    2.9093   53.2414 H       1  ZINC001110536231    0.0800
     34 H34         1.6429    2.0644   53.5805 H       1  ZINC001110536231    0.0700
     35 H35         3.1691    1.4489   54.2589 H       1  ZINC001110536231    0.0700
     36 H36         2.1542    0.4898   50.3151 H       1  ZINC001110536231    0.1200
     37 H37        -0.5000    0.5131   50.8280 H       1  ZINC001110536231    0.4000
     38 H38        -2.6278    0.4603   50.6307 H       1  ZINC001110536231    0.0700
     39 H39        -3.5697    1.5441   51.7046 H       1  ZINC001110536231    0.0800
     40 H40        -4.6189    4.0710   49.4007 H       1  ZINC001110536231    0.0700
     41 H41        -4.6142    3.4029   51.0646 H       1  ZINC001110536231    0.0700
     42 H42        -2.7137    5.2945   49.8866 H       1  ZINC001110536231    0.0800
     43 H43        -2.7089    4.6264   51.5505 H       1  ZINC001110536231    0.0700
     44 H44        -0.3787    1.6281   48.9454 H       1  ZINC001110536231    0.0900
     45 H45        -1.8314    0.6027   48.8665 H       1  ZINC001110536231    0.0700
     46 H46        -0.9468    3.6093   46.8031 H       1  ZINC001110536231    0.1300
     47 H47        -0.7863    3.5046   44.3507 H       1  ZINC001110536231    0.1600
     48 H48        -1.0161   -1.8606   42.4880 H       1  ZINC001110536231    0.1000
     49 H49        -1.3211   -0.1162   42.3084 H       1  ZINC001110536231    0.0600
     50 H50         0.2212   -0.6842   42.9917 H       1  ZINC001110536231    0.0600
     51 H51        -1.5662   -0.6196   46.8461 H       1  ZINC001110536231    0.1400
@<TRIPOS>BOND
     1     1     2    1
     2     1    28    1
     3     1    29    1
     4     1    30    1
     5     2     3    1
     6     2    31    1
     7     2    32    1
     8     3     4    1
     9     3     5    2
    10     4    33    1
    11     4    34    1
    12     4    35    1
    13     5     6    1
    14     5    36    1
    15     6     7    2
    16     6     8   am
    17     8     9    1
    18     8    37    1
    19     9    10    1
    20     9    16    1
    21     9    11    1
    22    11    12    1
    23    11    38    1
    24    11    39    1
    25    12    13    1
    26    12    18    1
    27    12    14    1
    28    14    15    1
    29    14    40    1
    30    14    41    1
    31    15    16    1
    32    15    42    1
    33    15    43    1
    34    16    17    1
    35    16    18    1
    36    18    19    1
    37    19    20    1
    38    19    44    1
    39    19    45    1
    40    20    27   ar
    41    20    21   ar
    42    21    22   ar
    43    21    46    1
    44    22    23   ar
    45    22    47    1
    46    23    24   ar
    47    24    25    1
    48    24    27   ar
    49    25    26    1
    50    26    48    1
    51    26    49    1
    52    26    50    1
    53    27    51    1
@<TRIPOS>SUBSTRUCTURE
     1 ZINC001110536231        1 TEMP              0 ****  ****    0 ROOT


##########                                Name:    ZINC000668548901
##########                DOCK_Rotatable_Bonds:                   9
##########                         Heavy_Atoms:                  26
##########                    Molecular_Weight:             374.464
##########                DOCK_Rotatable_Bonds:                   9
##########                       Formal_Charge:         3.53903e-07
##########                     HBond_Acceptors:                   8
##########                        HBond_Donors:                   3
##########                         Heavy_Atoms:                  26
##########                          Grid_Score:          -30.170439
##########                     Grid_vdw_energy:          -29.718313
##########                      Grid_es_energy:           -0.452125
##########           Internal_energy_repulsive:            9.080427

@<TRIPOS>MOLECULE
ZINC000668548901
 48 50 1 0 0
SMALL
USER_CHARGES


@<TRIPOS>ATOM
      1 O1        -10.9768   -0.5045   56.9411 O.2     1  ZINC000668548901   -0.5700
      2 C2        -10.4606   -1.5914   56.7669 C.2     1  ZINC000668548901    0.7100
      3 N3         -9.8080   -1.8509   55.6165 N.am    1  ZINC000668548901   -0.6800
      4 C4         -9.7296   -0.8738   54.6231 C.ar    1  ZINC000668548901    0.2200
      5 C5        -10.5963   -0.8950   53.5291 C.ar    1  ZINC000668548901   -0.1700
      6 C6        -10.4900    0.0861   52.5667 C.ar    1  ZINC000668548901    0.1200
      7 N7         -9.5828    1.0397   52.6672 N.ar    1  ZINC000668548901   -0.4300
      8 C8         -8.7403    1.0972   53.6891 C.ar    1  ZINC000668548901    0.1100
      9 S9         -7.5515    2.3954   53.7674 S.3     1  ZINC000668548901    0.0900
     10 C10        -6.9220    2.4562   52.1227 C.ar    1  ZINC000668548901    0.0900
     11 C11        -6.2039    1.3764   51.6191 C.ar    1  ZINC000668548901   -0.1500
     12 C12        -5.7159    1.4375   50.3261 C.ar    1  ZINC000668548901   -0.0700
     13 C13        -5.9633    2.5805   49.5776 C.ar    1  ZINC000668548901   -0.1700
     14 C14        -6.6836    3.6153   50.1410 C.ar    1  ZINC000668548901    0.1000
     15 N15        -7.1414    3.5275   51.3751 N.ar    1  ZINC000668548901   -0.4200
     16 C16        -8.7894    0.1483   54.7015 C.ar    1  ZINC000668548901   -0.1800
     17 N17       -10.5363   -2.5350   57.7263 N.am    1  ZINC000668548901   -0.7200
     18 C18       -11.2456   -2.2530   58.9766 C.3     1  ZINC000668548901    0.1700
     19 H19       -11.4569   -1.1856   59.0417 H       1  ZINC000668548901    0.1000
     20 C20       -10.3757   -2.6739   60.1627 C.3     1  ZINC000668548901    0.0600
     21 O21        -9.0649   -2.1255   60.0106 O.3     1  ZINC000668548901   -0.5700
     22 C22       -12.5600   -3.0357   59.0050 C.3     1  ZINC000668548901   -0.1300
     23 H23       -12.3519   -4.1008   58.9036 H       1  ZINC000668548901    0.1000
     24 C24       -13.4543   -2.5764   57.8494 C.3     1  ZINC000668548901   -0.1200
     25 C25       -14.7962   -3.3101   57.9340 C.3     1  ZINC000668548901   -0.1600
     26 C26       -15.4303   -3.0417   59.3015 C.3     1  ZINC000668548901    0.0600
     27 O27       -14.5342   -3.4635   60.3316 O.3     1  ZINC000668548901   -0.3800
     28 C28       -13.2796   -2.7791   60.3317 C.3     1  ZINC000668548901    0.0700
     29 H29        -9.3927   -2.7166   55.4792 H       1  ZINC000668548901    0.4100
     30 H30       -11.3414   -1.6715   53.4377 H       1  ZINC000668548901    0.1500
     31 H31       -11.1584    0.0743   51.7184 H       1  ZINC000668548901    0.1600
     32 H32        -6.0296    0.5026   52.2292 H       1  ZINC000668548901    0.1400
     33 H33        -5.1547    0.6147   49.9084 H       1  ZINC000668548901    0.1400
     34 H34        -5.5957    2.6597   48.5652 H       1  ZINC000668548901    0.1400
     35 H35        -6.8780    4.5063   49.5625 H       1  ZINC000668548901    0.1600
     36 H36        -8.1018    0.1977   55.5329 H       1  ZINC000668548901    0.1400
     37 H37       -10.1211   -3.4008   57.5889 H       1  ZINC000668548901    0.4000
     38 H38       -10.8190   -2.3047   61.0876 H       1  ZINC000668548901    0.0500
     39 H39       -10.3125   -3.7615   60.1990 H       1  ZINC000668548901    0.0600
     40 H40        -8.4427   -2.3965   60.6994 H       1  ZINC000668548901    0.3800
     41 H41       -13.6211   -1.5017   57.9222 H       1  ZINC000668548901    0.0700
     42 H42       -12.9713   -2.8083   56.9002 H       1  ZINC000668548901    0.0700
     43 H43       -15.4593   -2.9488   57.1479 H       1  ZINC000668548901    0.0800
     44 H44       -14.6343   -4.3810   57.8115 H       1  ZINC000668548901    0.0700
     45 H45       -15.6292   -1.9752   59.4069 H       1  ZINC000668548901    0.0500
     46 H46       -16.3653   -3.5959   59.3836 H       1  ZINC000668548901    0.1000
     47 H47       -12.6667   -3.1439   61.1559 H       1  ZINC000668548901    0.1000
     48 H48       -13.4494   -1.7090   60.4505 H       1  ZINC000668548901    0.0500
@<TRIPOS>BOND
     1     1     2    2
     2     2     3   am
     3     2    17   am
     4     3     4    1
     5     3    29    1
     6     4    16   ar
     7     4     5   ar
     8     5     6   ar
     9     5    30    1
    10     6     7   ar
    11     6    31    1
    12     7     8   ar
    13     8     9    1
    14     8    16   ar
    15     9    10    1
    16    10    15   ar
    17    10    11   ar
    18    11    12   ar
    19    11    32    1
    20    12    13   ar
    21    12    33    1
    22    13    14   ar
    23    13    34    1
    24    14    15   ar
    25    14    35    1
    26    16    36    1
    27    17    18    1
    28    17    37    1
    29    18    19    1
    30    18    20    1
    31    18    22    1
    32    20    21    1
    33    20    38    1
    34    20    39    1
    35    21    40    1
    36    22    23    1
    37    22    28    1
    38    22    24    1
    39    24    25    1
    40    24    41    1
    41    24    42    1
    42    25    26    1
    43    25    43    1
    44    25    44    1
    45    26    27    1
    46    26    45    1
    47    26    46    1
    48    27    28    1
    49    28    47    1
    50    28    48    1
@<TRIPOS>SUBSTRUCTURE
     1 ZINC000668548901        1 TEMP              0 ****  ****    0 ROOT


##########                                Name:    ZINC000481050680
##########                DOCK_Rotatable_Bonds:                   7
##########                         Heavy_Atoms:                  29
##########                    Molecular_Weight:              412.46
##########                DOCK_Rotatable_Bonds:                   7
##########                       Formal_Charge:          -0.0199997
##########                     HBond_Acceptors:                   7
##########                        HBond_Donors:                   1
##########                         Heavy_Atoms:                  29
##########                          Grid_Score:          -30.166510
##########                     Grid_vdw_energy:          -29.916529
##########                      Grid_es_energy:           -0.249981
##########           Internal_energy_repulsive:           14.194415

@<TRIPOS>MOLECULE
ZINC000481050680
 47 49 1 0 0
SMALL
USER_CHARGES


@<TRIPOS>ATOM
      1 N1         -9.6398   -0.9629   54.3387 N.1     1  ZINC000481050680   -0.3900
      2 C2         -9.0451   -0.4130   53.5423 C.1     1  ZINC000481050680    0.2500
      3 C3         -8.2954    0.2803   52.5382 C.ar    1  ZINC000481050680    0.0200
      4 C4         -7.1313   -0.2868   52.0161 C.ar    1  ZINC000481050680   -0.0800
      5 C5         -6.4131    0.3852   51.0485 C.ar    1  ZINC000481050680   -0.0800
      6 C6         -6.8431    1.6188   50.5947 C.ar    1  ZINC000481050680   -0.1000
      7 C7         -6.0531    2.3464   49.5376 C.3     1  ZINC000481050680   -0.5900
      8 S8         -5.0050    3.6016   50.3228 S.o2    1  ZINC000481050680    2.6000
      9 O9         -5.3590    4.9012   49.8700 O.2     1  ZINC000481050680   -0.9300
     10 O10        -4.8492    3.3256   51.7081 O.2     1  ZINC000481050680   -0.9400
     11 N11        -3.4997    3.3422   49.6830 N.am    1  ZINC000481050680   -1.1100
     12 C12        -2.8375    2.0488   49.8696 C.3     1  ZINC000481050680    0.2100
     13 H13        -3.5577    1.3230   50.2472 H       1  ZINC000481050680    0.1000
     14 C14        -1.6934    2.2019   50.8740 C.3     1  ZINC000481050680   -0.0800
     15 C15        -0.5413    2.9180   50.2178 C.ar    1  ZINC000481050680   -0.0900
     16 C16         0.5886    2.2137   49.8461 C.ar    1  ZINC000481050680   -0.1200
     17 C17         1.6456    2.8705   49.2442 C.ar    1  ZINC000481050680   -0.1200
     18 C18         1.5724    4.2315   49.0135 C.ar    1  ZINC000481050680   -0.1200
     19 C19         0.4422    4.9356   49.3845 C.ar    1  ZINC000481050680   -0.1200
     20 C20        -0.6165    4.2781   49.9825 C.ar    1  ZINC000481050680   -0.1200
     21 C21        -2.2874    1.5712   48.5505 C.ar    1  ZINC000481050680   -0.1300
     22 C22        -2.1204    2.4624   47.5079 C.ar    1  ZINC000481050680   -0.0700
     23 C23        -1.6157    2.0244   46.2973 C.ar    1  ZINC000481050680   -0.1300
     24 C24        -1.2781    0.6947   46.1287 C.ar    1  ZINC000481050680   -0.0900
     25 C25        -1.4448   -0.1987   47.1700 C.ar    1  ZINC000481050680   -0.1500
     26 C26        -1.9437    0.2400   48.3846 C.ar    1  ZINC000481050680    0.1100
     27 F27        -2.1070   -0.6324   49.4031 F       1  ZINC000481050680   -0.1400
     28 C28        -7.9979    2.1884   51.1075 C.ar    1  ZINC000481050680    0.1200
     29 F29        -8.4122    3.3936   50.6590 F       1  ZINC000481050680   -0.1200
     30 C30        -8.7286    1.5235   52.0732 C.ar    1  ZINC000481050680   -0.1000
     31 H31        -6.7934   -1.2500   52.3692 H       1  ZINC000481050680    0.1500
     32 H32        -5.5124   -0.0531   50.6447 H       1  ZINC000481050680    0.1500
     33 H33        -5.4268    1.6357   48.9984 H       1  ZINC000481050680    0.1500
     34 H34        -6.7378    2.8293   48.8403 H       1  ZINC000481050680    0.1500
     35 H35        -3.0566    4.0466   49.1846 H       1  ZINC000481050680    0.4200
     36 H36        -2.0383    2.7786   51.7322 H       1  ZINC000481050680    0.0900
     37 H37        -1.3672    1.2163   51.2060 H       1  ZINC000481050680    0.0900
     38 H38         0.6458    1.1503   50.0263 H       1  ZINC000481050680    0.1200
     39 H39         2.5287    2.3204   48.9544 H       1  ZINC000481050680    0.1200
     40 H40         2.3985    4.7448   48.5439 H       1  ZINC000481050680    0.1200
     41 H41         0.3852    5.9991   49.2046 H       1  ZINC000481050680    0.1200
     42 H42        -1.4996    4.8282   50.2723 H       1  ZINC000481050680    0.1200
     43 H43        -2.3845    3.5015   47.6384 H       1  ZINC000481050680    0.1300
     44 H44        -1.4855    2.7218   45.4830 H       1  ZINC000481050680    0.1300
     45 H45        -0.8843    0.3536   45.1825 H       1  ZINC000481050680    0.1300
     46 H46        -1.1815   -1.2378   47.0377 H       1  ZINC000481050680    0.1400
     47 H47        -9.6286    1.9672   52.4726 H       1  ZINC000481050680    0.1600
@<TRIPOS>BOND
     1     1     2    3
     2     2     3    1
     3     3    30   ar
     4     3     4   ar
     5     4     5   ar
     6     4    31    1
     7     5     6   ar
     8     5    32    1
     9     6     7    1
    10     6    28   ar
    11     7     8    1
    12     7    33    1
    13     7    34    1
    14     8     9    2
    15     8    10    2
    16     8    11   am
    17    11    12    1
    18    11    35    1
    19    12    13    1
    20    12    14    1
    21    12    21    1
    22    14    15    1
    23    14    36    1
    24    14    37    1
    25    15    20   ar
    26    15    16   ar
    27    16    17   ar
    28    16    38    1
    29    17    18   ar
    30    17    39    1
    31    18    19   ar
    32    18    40    1
    33    19    20   ar
    34    19    41    1
    35    20    42    1
    36    21    26   ar
    37    21    22   ar
    38    22    23   ar
    39    22    43    1
    40    23    24   ar
    41    23    44    1
    42    24    25   ar
    43    24    45    1
    44    25    26   ar
    45    25    46    1
    46    26    27    1
    47    28    29    1
    48    28    30   ar
    49    30    47    1
@<TRIPOS>SUBSTRUCTURE
     1 ZINC000481050680        1 TEMP              0 ****  ****    0 ROOT


##########                                Name:    ZINC000171059239
##########                DOCK_Rotatable_Bonds:                   8
##########                         Heavy_Atoms:                  25
##########                    Molecular_Weight:              333.39
##########                DOCK_Rotatable_Bonds:                   8
##########                       Formal_Charge:         1.10269e-06
##########                     HBond_Acceptors:                   5
##########                        HBond_Donors:                   4
##########                         Heavy_Atoms:                  25
##########                          Grid_Score:          -30.134787
##########                     Grid_vdw_energy:          -26.367050
##########                      Grid_es_energy:           -3.767737
##########           Internal_energy_repulsive:            7.167759

@<TRIPOS>MOLECULE
ZINC000171059239
 44 46 1 0 0
SMALL
USER_CHARGES


@<TRIPOS>ATOM
      1 N1          3.0454    0.4403   48.3818 N.am    1  ZINC000171059239   -0.8500
      2 C2          3.4009    0.5220   47.0844 C.2     1  ZINC000171059239    0.5600
      3 O3          4.5718    0.6432   46.7816 O.2     1  ZINC000171059239   -0.5400
      4 C4          2.3666    0.4644   46.0295 C.ar    1  ZINC000171059239   -0.1400
      5 C5          2.7343    0.5116   44.6841 C.ar    1  ZINC000171059239   -0.0900
      6 C6          1.7641    0.4569   43.7045 C.ar    1  ZINC000171059239   -0.1200
      7 C7          0.4293    0.3563   44.0538 C.ar    1  ZINC000171059239   -0.0800
      8 C8          0.0578    0.3096   45.3860 C.ar    1  ZINC000171059239   -0.0900
      9 C9         -1.3986    0.2003   45.7570 C.3     1  ZINC000171059239   -0.0900
     10 C10        -1.7865    1.3783   46.6530 C.3     1  ZINC000171059239    0.1400
     11 N11        -1.9054    0.9191   48.0391 N.am    1  ZINC000171059239   -0.7400
     12 C12        -2.5631    1.6709   48.9439 C.2     1  ZINC000171059239    0.7000
     13 O13        -3.0590    2.7295   48.6095 O.2     1  ZINC000171059239   -0.5700
     14 N14        -2.6711    1.2493   50.2195 N.am    1  ZINC000171059239   -0.6800
     15 C15        -3.3524    2.0281   51.1569 C.ar    1  ZINC000171059239    0.1700
     16 C16        -4.6838    1.7182   51.5069 C.ar    1  ZINC000171059239   -0.0600
     17 C17        -5.3542    0.6291   50.9285 C.ar    1  ZINC000171059239   -0.1100
     18 C18        -6.6388    0.3591   51.2902 C.ar    1  ZINC000171059239   -0.1100
     19 C19        -7.3006    1.1493   52.2280 C.ar    1  ZINC000171059239   -0.1200
     20 C20        -6.6819    2.2131   52.8092 C.ar    1  ZINC000171059239   -0.1000
     21 C21        -5.3555    2.5220   52.4608 C.ar    1  ZINC000171059239   -0.0400
     22 C22        -4.6854    3.6123   53.0410 C.ar    1  ZINC000171059239   -0.1200
     23 C23        -3.4005    3.8882   52.6850 C.ar    1  ZINC000171059239   -0.0900
     24 C24        -2.7288    3.1030   51.7528 C.ar    1  ZINC000171059239   -0.1200
     25 C25         1.0183    0.3570   46.3749 C.ar    1  ZINC000171059239   -0.0500
     26 H26         3.7241    0.4769   49.0739 H       1  ZINC000171059239    0.4100
     27 H27         2.1105    0.3488   48.6237 H       1  ZINC000171059239    0.4000
     28 H28         3.7760    0.5909   44.4103 H       1  ZINC000171059239    0.1300
     29 H29         2.0473    0.4933   42.6630 H       1  ZINC000171059239    0.1300
     30 H30        -0.3262    0.3142   43.2832 H       1  ZINC000171059239    0.1300
     31 H31        -2.0063    0.2165   44.8522 H       1  ZINC000171059239    0.0800
     32 H32        -1.5682   -0.7342   46.2918 H       1  ZINC000171059239    0.0800
     33 H33        -1.0195    2.1503   46.5905 H       1  ZINC000171059239    0.0700
     34 H34        -2.7413    1.7871   46.3224 H       1  ZINC000171059239    0.0700
     35 H35        -1.5109    0.0740   48.3056 H       1  ZINC000171059239    0.4000
     36 H36        -2.2755    0.4047   50.4863 H       1  ZINC000171059239    0.4100
     37 H37        -4.8537    0.0085   50.1999 H       1  ZINC000171059239    0.1200
     38 H38        -7.1522   -0.4796   50.8437 H       1  ZINC000171059239    0.1200
     39 H39        -8.3198    0.9143   52.4971 H       1  ZINC000171059239    0.1200
     40 H40        -7.2074    2.8171   53.5341 H       1  ZINC000171059239    0.1300
     41 H41        -5.1894    4.2313   53.7686 H       1  ZINC000171059239    0.1300
     42 H42        -2.8931    4.7281   53.1360 H       1  ZINC000171059239    0.1300
     43 H43        -1.7097    3.3430   51.4880 H       1  ZINC000171059239    0.1400
     44 H44         0.7271    0.3202   47.4142 H       1  ZINC000171059239    0.1400
@<TRIPOS>BOND
     1     1     2   am
     2     1    26    1
     3     1    27    1
     4     2     3    2
     5     2     4    1
     6     4    25   ar
     7     4     5   ar
     8     5     6   ar
     9     5    28    1
    10     6     7   ar
    11     6    29    1
    12     7     8   ar
    13     7    30    1
    14     8     9    1
    15     8    25   ar
    16     9    10    1
    17     9    31    1
    18     9    32    1
    19    10    11    1
    20    10    33    1
    21    10    34    1
    22    11    12   am
    23    11    35    1
    24    12    13    2
    25    12    14   am
    26    14    15    1
    27    14    36    1
    28    15    24   ar
    29    15    16   ar
    30    16    21   ar
    31    16    17   ar
    32    17    18   ar
    33    17    37    1
    34    18    19   ar
    35    18    38    1
    36    19    20   ar
    37    19    39    1
    38    20    21   ar
    39    20    40    1
    40    21    22   ar
    41    22    23   ar
    42    22    41    1
    43    23    24   ar
    44    23    42    1
    45    24    43    1
    46    25    44    1
@<TRIPOS>SUBSTRUCTURE
     1 ZINC000171059239        1 TEMP              0 ****  ****    0 ROOT


##########                                Name:    ZINC000766421809
##########                DOCK_Rotatable_Bonds:                   7
##########                         Heavy_Atoms:                  26
##########                    Molecular_Weight:             358.372
##########                DOCK_Rotatable_Bonds:                   7
##########                       Formal_Charge:         4.61936e-07
##########                     HBond_Acceptors:                   8
##########                        HBond_Donors:                   0
##########                         Heavy_Atoms:                  26
##########                          Grid_Score:          -30.130810
##########                     Grid_vdw_energy:          -28.425913
##########                      Grid_es_energy:           -1.704898
##########           Internal_energy_repulsive:            6.721223

@<TRIPOS>MOLECULE
ZINC000766421809
 45 47 1 0 0
SMALL
USER_CHARGES


@<TRIPOS>ATOM
      1 C1         -8.7977    0.8660   60.4164 C.3     1  ZINC000766421809   -0.0700
      2 C2         -8.0310    1.3643   59.2185 C.2     1  ZINC000766421809    0.0700
      3 N3         -7.0248    2.2002   59.2451 N.2     1  ZINC000766421809   -0.2900
      4 N4         -6.5930    2.4073   57.9287 N.pl3   1  ZINC000766421809   -0.3700
      5 C5         -5.4883    3.2738   57.5103 C.3     1  ZINC000766421809    0.1000
      6 C6         -7.3743    1.6677   57.1140 C.2     1  ZINC000766421809    0.0700
      7 C7         -7.2664    1.5857   55.6131 C.3     1  ZINC000766421809    0.1400
      8 O8         -7.7022    0.2744   55.1675 O.3     1  ZINC000766421809   -0.3400
      9 C9         -7.6703    0.0381   53.8465 C.2     1  ZINC000766421809    0.4700
     10 O10        -8.3840   -0.8109   53.3673 O.2     1  ZINC000766421809   -0.5000
     11 C11        -6.7443    0.8318   52.9612 C.3     1  ZINC000766421809   -0.1100
     12 C12        -6.8458    0.3158   51.5244 C.3     1  ZINC000766421809   -0.0200
     13 C13        -5.8213    1.0129   50.6668 C.2     1  ZINC000766421809    0.1900
     14 N14        -4.5309    1.0660   50.8847 N.2     1  ZINC000766421809   -0.4700
     15 C15        -4.0197    1.7907   49.8638 C.2     1  ZINC000766421809    0.2200
     16 C16        -2.5912    2.1343   49.6560 C.ar    1  ZINC000766421809   -0.0300
     17 C17        -2.2271    3.0315   48.6540 C.ar    1  ZINC000766421809   -0.0500
     18 C18        -0.8977    3.3486   48.4645 C.ar    1  ZINC000766421809   -0.1500
     19 C19         0.0745    2.7760   49.2685 C.ar    1  ZINC000766421809    0.1200
     20 F20         1.3751    3.0889   49.0794 F       1  ZINC000766421809   -0.1300
     21 C21        -0.2834    1.8837   50.2666 C.ar    1  ZINC000766421809   -0.1200
     22 C22         0.7784    1.2647   51.1387 C.3     1  ZINC000766421809   -0.1200
     23 C23        -1.6105    1.5651   50.4663 C.ar    1  ZINC000766421809   -0.0600
     24 N24        -5.0202    2.1316   49.0935 N.2     1  ZINC000766421809   -0.3700
     25 O25        -6.0580    1.6882   49.5378 O.3     1  ZINC000766421809    0.0900
     26 C26        -8.2684    1.0086   57.8867 C.2     1  ZINC000766421809   -0.2400
     27 H27        -8.3266   -0.0398   60.7981 H       1  ZINC000766421809    0.0800
     28 H28        -8.7963    1.6311   61.1928 H       1  ZINC000766421809    0.0700
     29 H29        -9.8247    0.6461   60.1247 H       1  ZINC000766421809    0.0800
     30 H30        -4.5616    2.7002   57.4969 H       1  ZINC000766421809    0.0800
     31 H31        -5.6895    3.6625   56.5119 H       1  ZINC000766421809    0.0900
     32 H32        -5.3920    4.1035   58.2106 H       1  ZINC000766421809    0.0900
     33 H33        -7.8971    2.3512   55.1612 H       1  ZINC000766421809    0.0900
     34 H34        -6.2305    1.7455   55.3141 H       1  ZINC000766421809    0.0900
     35 H35        -7.0271    1.8840   52.9902 H       1  ZINC000766421809    0.1200
     36 H36        -5.7194    0.7210   53.3154 H       1  ZINC000766421809    0.1200
     37 H37        -6.6613   -0.7583   51.5101 H       1  ZINC000766421809    0.1200
     38 H38        -7.8437    0.5182   51.1353 H       1  ZINC000766421809    0.1200
     39 H39        -2.9843    3.4778   48.0263 H       1  ZINC000766421809    0.1500
     40 H40        -0.6145    4.0439   47.6881 H       1  ZINC000766421809    0.1500
     41 H41         0.9432    1.8945   52.0129 H       1  ZINC000766421809    0.0800
     42 H42         0.4535    0.2751   51.4600 H       1  ZINC000766421809    0.0800
     43 H43         1.7066    1.1768   50.5740 H       1  ZINC000766421809    0.0700
     44 H44        -1.8885    0.8695   51.2443 H       1  ZINC000766421809    0.1400
     45 H45        -9.0341    0.3322   57.5365 H       1  ZINC000766421809    0.1500
@<TRIPOS>BOND
     1     1     2    1
     2     1    27    1
     3     1    28    1
     4     1    29    1
     5     2    26    1
     6     2     3    2
     7     3     4    1
     8     4     5    1
     9     4     6    1
    10     5    30    1
    11     5    31    1
    12     5    32    1
    13     6     7    1
    14     6    26    2
    15     7     8    1
    16     7    33    1
    17     7    34    1
    18     8     9    1
    19     9    10    2
    20     9    11    1
    21    11    12    1
    22    11    35    1
    23    11    36    1
    24    12    13    1
    25    12    37    1
    26    12    38    1
    27    13    25    1
    28    13    14    2
    29    14    15    1
    30    15    16    1
    31    15    24    2
    32    16    23   ar
    33    16    17   ar
    34    17    18   ar
    35    17    39    1
    36    18    19   ar
    37    18    40    1
    38    19    20    1
    39    19    21   ar
    40    21    22    1
    41    21    23   ar
    42    22    41    1
    43    22    42    1
    44    22    43    1
    45    23    44    1
    46    24    25    1
    47    26    45    1
@<TRIPOS>SUBSTRUCTURE
     1 ZINC000766421809        1 TEMP              0 ****  ****    0 ROOT


##########                                Name:    ZINC000675319328
##########                DOCK_Rotatable_Bonds:                   7
##########                         Heavy_Atoms:                  26
##########                    Molecular_Weight:             363.475
##########                DOCK_Rotatable_Bonds:                   7
##########                       Formal_Charge:          -0.0200007
##########                     HBond_Acceptors:                   6
##########                        HBond_Donors:                   1
##########                         Heavy_Atoms:                  26
##########                          Grid_Score:          -30.130352
##########                     Grid_vdw_energy:          -28.872982
##########                      Grid_es_energy:           -1.257369
##########           Internal_energy_repulsive:           22.188959

@<TRIPOS>MOLECULE
ZINC000675319328
 56 58 1 0 0
SMALL
USER_CHARGES


@<TRIPOS>ATOM
      1 C1          0.6032    3.4452   46.5891 C.3     1  ZINC000675319328   -0.1600
      2 C2          0.9701    2.1830   47.3720 C.3     1  ZINC000675319328    0.1600
      3 H3          1.9703    2.2931   47.7910 H       1  ZINC000675319328    0.0900
      4 C4          0.9403    0.9744   46.4342 C.3     1  ZINC000675319328   -0.1200
      5 C5         -0.4862    0.7593   45.9246 C.3     1  ZINC000675319328   -0.1200
      6 H6         -1.1935    1.3676   46.4883 H       1  ZINC000675319328    0.0800
      7 C7         -0.5822    1.0653   44.4051 C.3     1  ZINC000675319328   -0.1500
      8 C8         -1.7591    0.1453   43.9936 C.3     1  ZINC000675319328    0.0500
      9 O9         -1.6062   -1.0391   44.7919 O.3     1  ZINC000675319328   -0.3900
     10 C10        -0.8729   -0.7339   45.9882 C.3     1  ZINC000675319328    0.0500
     11 N11         0.0055    1.9835   48.4565 N.am    1  ZINC000675319328   -0.7400
     12 C12         0.0449    2.7741   49.5473 C.2     1  ZINC000675319328    0.7000
     13 O13         0.8808    3.6531   49.6311 O.2     1  ZINC000675319328   -0.5900
     14 N14        -0.8424    2.5906   50.5450 N.am    1  ZINC000675319328   -0.6200
     15 C15        -0.7743    3.4723   51.7268 C.3     1  ZINC000675319328    0.1300
     16 C16        -2.1782    3.8997   52.1869 C.3     1  ZINC000675319328   -0.1300
     17 C17        -3.0413    4.1924   50.9794 C.3     1  ZINC000675319328    0.0700
     18 N18        -3.7686    2.9804   50.6062 N.3     1  ZINC000675319328   -0.5500
     19 C19        -5.1093    3.3052   50.1013 C.3     1  ZINC000675319328    0.1000
     20 C20        -6.1445    2.5796   50.9216 C.ar    1  ZINC000675319328   -0.0900
     21 C21        -5.7851    1.4676   51.6602 C.ar    1  ZINC000675319328   -0.0900
     22 C22        -6.7336    0.8014   52.4128 C.ar    1  ZINC000675319328   -0.1500
     23 C23        -8.0440    1.2482   52.4273 C.ar    1  ZINC000675319328    0.1000
     24 F24        -8.9719    0.5979   53.1630 F       1  ZINC000675319328   -0.1400
     25 C25        -8.4026    2.3623   51.6875 C.ar    1  ZINC000675319328   -0.1500
     26 C26        -7.4514    3.0298   50.9394 C.ar    1  ZINC000675319328   -0.0700
     27 C27        -3.0998    2.0909   49.7329 C.3     1  ZINC000675319328    0.0500
     28 C28        -1.8305    1.5391   50.4140 C.3     1  ZINC000675319328    0.1100
     29 H29         0.6245    4.3063   47.2571 H       1  ZINC000675319328    0.0600
     30 H30         1.3208    3.5937   45.7821 H       1  ZINC000675319328    0.0700
     31 H31        -0.3970    3.3351   46.1700 H       1  ZINC000675319328    0.0500
     32 H32         1.6049    1.1539   45.5891 H       1  ZINC000675319328    0.0700
     33 H33         1.2709    0.0873   46.9744 H       1  ZINC000675319328    0.0900
     34 H34        -0.8234    2.1137   44.2299 H       1  ZINC000675319328    0.0800
     35 H35         0.3355    0.7837   43.8888 H       1  ZINC000675319328    0.0800
     36 H36        -2.7113    0.6285   44.2121 H       1  ZINC000675319328    0.0600
     37 H37        -1.6937   -0.1017   42.9339 H       1  ZINC000675319328    0.0900
     38 H38         0.0285   -1.3450   46.0354 H       1  ZINC000675319328    0.0700
     39 H39        -1.4959   -0.9236   46.8623 H       1  ZINC000675319328    0.0700
     40 H40        -0.6613    1.2824   48.3895 H       1  ZINC000675319328    0.3900
     41 H41        -0.2784    2.9418   52.5397 H       1  ZINC000675319328    0.0600
     42 H42        -0.1949    4.3610   51.4762 H       1  ZINC000675319328    0.0900
     43 H43        -2.6294    3.0964   52.7693 H       1  ZINC000675319328    0.0800
     44 H44        -2.1011    4.7951   52.8034 H       1  ZINC000675319328    0.0800
     45 H45        -3.7511    4.9832   51.2220 H       1  ZINC000675319328    0.0700
     46 H46        -2.4106    4.5094   50.1489 H       1  ZINC000675319328    0.0400
     47 H47        -5.2749    4.3800   50.1756 H       1  ZINC000675319328    0.0900
     48 H48        -5.1897    2.9965   49.0591 H       1  ZINC000675319328    0.0400
     49 H49        -4.7629    1.1193   51.6489 H       1  ZINC000675319328    0.1300
     50 H50        -6.4528   -0.0677   52.9893 H       1  ZINC000675319328    0.1400
     51 H51        -9.4245    2.7115   51.6976 H       1  ZINC000675319328    0.1400
     52 H52        -7.7308    3.8989   50.3625 H       1  ZINC000675319328    0.1300
     53 H53        -3.7642    1.2647   49.4797 H       1  ZINC000675319328    0.0900
     54 H54        -2.8198    2.6203   48.8222 H       1  ZINC000675319328    0.0300
     55 H55        -1.4182    0.7299   49.8113 H       1  ZINC000675319328    0.0700
     56 H56        -2.0855    1.1598   51.4035 H       1  ZINC000675319328    0.0900
@<TRIPOS>BOND
     1     1     2    1
     2     1    29    1
     3     1    30    1
     4     1    31    1
     5     2     3    1
     6     2     4    1
     7     2    11    1
     8     4     5    1
     9     4    32    1
    10     4    33    1
    11     5     6    1
    12     5    10    1
    13     5     7    1
    14     7     8    1
    15     7    34    1
    16     7    35    1
    17     8     9    1
    18     8    36    1
    19     8    37    1
    20     9    10    1
    21    10    38    1
    22    10    39    1
    23    11    12   am
    24    11    40    1
    25    12    13    2
    26    12    14   am
    27    14    28    1
    28    14    15    1
    29    15    16    1
    30    15    41    1
    31    15    42    1
    32    16    17    1
    33    16    43    1
    34    16    44    1
    35    17    18    1
    36    17    45    1
    37    17    46    1
    38    18    19    1
    39    18    27    1
    40    19    20    1
    41    19    47    1
    42    19    48    1
    43    20    26   ar
    44    20    21   ar
    45    21    22   ar
    46    21    49    1
    47    22    23   ar
    48    22    50    1
    49    23    24    1
    50    23    25   ar
    51    25    26   ar
    52    25    51    1
    53    26    52    1
    54    27    28    1
    55    27    53    1
    56    27    54    1
    57    28    55    1
    58    28    56    1
@<TRIPOS>SUBSTRUCTURE
     1 ZINC000675319328        1 TEMP              0 ****  ****    0 ROOT


##########                                Name:    ZINC001310073555
##########                DOCK_Rotatable_Bonds:                  12
##########                         Heavy_Atoms:                  27
##########                    Molecular_Weight:             380.484
##########                DOCK_Rotatable_Bonds:                  12
##########                       Formal_Charge:          0.00999888
##########                     HBond_Acceptors:                   7
##########                        HBond_Donors:                   2
##########                         Heavy_Atoms:                  27
##########                          Grid_Score:          -30.129421
##########                     Grid_vdw_energy:          -29.874245
##########                      Grid_es_energy:           -0.255176
##########           Internal_energy_repulsive:           39.148937

@<TRIPOS>MOLECULE
ZINC001310073555
 59 59 1 0 0
SMALL
USER_CHARGES


@<TRIPOS>ATOM
      1 C1        -14.2964   -1.6714   56.4133 C.3     1  ZINC001310073555   -0.1600
      2 C2        -13.3123   -2.7922   56.7541 C.3     1  ZINC001310073555   -0.1100
      3 C3        -11.9136   -2.2022   56.9453 C.3     1  ZINC001310073555   -0.0600
      4 C4        -10.8794   -3.3298   56.9400 C.3     1  ZINC001310073555   -0.1100
      5 C5        -11.3364   -4.4453   57.8822 C.3     1  ZINC001310073555   -0.1600
      6 C6        -11.6112   -1.2274   55.8056 C.3     1  ZINC001310073555    0.1600
      7 N7        -10.1717   -0.9588   55.7618 N.am    1  ZINC001310073555   -0.7400
      8 C8         -9.6011   -0.5274   54.6195 C.2     1  ZINC001310073555    0.7100
      9 O9        -10.2814   -0.3596   53.6257 O.2     1  ZINC001310073555   -0.5700
     10 N10        -8.2765   -0.2819   54.5788 N.am    1  ZINC001310073555   -0.6700
     11 C11        -7.6822    0.1675   53.3891 C.ar    1  ZINC001310073555    0.1000
     12 C12        -7.2063   -0.7475   52.4626 C.ar    1  ZINC001310073555   -0.0400
     13 C13        -6.6209   -0.3051   51.2911 C.ar    1  ZINC001310073555   -0.2200
     14 C14        -6.5088    1.0540   51.0395 C.ar    1  ZINC001310073555    0.1500
     15 O15        -5.9326    1.4860   49.8862 O.3     1  ZINC001310073555   -0.3200
     16 C16        -4.5079    1.5952   49.8740 C.3     1  ZINC001310073555    0.0300
     17 C17        -6.9844    1.9733   51.9632 C.ar    1  ZINC001310073555   -0.2300
     18 C18        -7.5752    1.5331   53.1356 C.ar    1  ZINC001310073555    0.1400
     19 O19        -8.0420    2.4326   54.0424 O.3     1  ZINC001310073555   -0.3100
     20 C20        -7.1060    2.9364   54.9974 C.3     1  ZINC001310073555    0.0300
     21 C21       -11.8526   -1.4709   58.2615 C.2     1  ZINC001310073555    0.4800
     22 O22       -12.6246   -1.7547   59.1467 O.2     1  ZINC001310073555   -0.5000
     23 O23       -10.9407   -0.5042   58.4507 O.3     1  ZINC001310073555   -0.3400
     24 C24       -10.2693   -0.4741   59.7377 C.3     1  ZINC001310073555    0.1200
     25 C25        -8.9833    0.3468   59.6230 C.3     1  ZINC001310073555   -0.1800
     26 C26       -11.1909    0.1645   60.7788 C.3     1  ZINC001310073555   -0.1400
     27 C27        -9.9263   -1.9019   60.1676 C.3     1  ZINC001310073555   -0.1800
     28 H28       -15.2929   -2.0918   56.2771 H       1  ZINC001310073555    0.0600
     29 H29       -14.3163   -0.9457   57.2264 H       1  ZINC001310073555    0.0500
     30 H30       -13.9813   -1.1783   55.4938 H       1  ZINC001310073555    0.0600
     31 H31       -13.6275   -3.2854   57.6736 H       1  ZINC001310073555    0.0800
     32 H32       -13.2925   -3.5179   55.9410 H       1  ZINC001310073555    0.0800
     33 H33       -10.7789   -3.7260   55.9296 H       1  ZINC001310073555    0.0800
     34 H34        -9.9175   -2.9420   57.2756 H       1  ZINC001310073555    0.0800
     35 H35       -11.4368   -4.0490   58.8926 H       1  ZINC001310073555    0.0600
     36 H36       -12.2982   -4.8331   57.5467 H       1  ZINC001310073555    0.0500
     37 H37       -10.5996   -5.2485   57.8786 H       1  ZINC001310073555    0.0600
     38 H38       -11.9280   -1.6654   54.8591 H       1  ZINC001310073555    0.0800
     39 H39       -12.1499   -0.2947   55.9728 H       1  ZINC001310073555    0.0800
     40 H40        -9.6292   -1.0915   56.5549 H       1  ZINC001310073555    0.4000
     41 H41        -7.7338   -0.4157   55.3715 H       1  ZINC001310073555    0.4100
     42 H42        -7.2925   -1.8064   52.6565 H       1  ZINC001310073555    0.1500
     43 H43        -6.2500   -1.0191   50.5706 H       1  ZINC001310073555    0.1300
     44 H44        -4.1910    2.3010   50.6419 H       1  ZINC001310073555    0.0600
     45 H45        -4.0669    0.6187   50.0739 H       1  ZINC001310073555    0.0600
     46 H46        -4.1790    1.9494   48.8971 H       1  ZINC001310073555    0.1000
     47 H47        -6.8967    3.0315   51.7665 H       1  ZINC001310073555    0.1400
     48 H48        -7.6068    3.6427   55.6593 H       1  ZINC001310073555    0.1000
     49 H49        -6.7054    2.1099   55.5844 H       1  ZINC001310073555    0.0600
     50 H50        -6.2917    3.4406   54.4771 H       1  ZINC001310073555    0.0600
     51 H51        -9.2276    1.3639   59.3168 H       1  ZINC001310073555    0.0600
     52 H52        -8.4793    0.3694   60.5892 H       1  ZINC001310073555    0.0700
     53 H53        -8.3267   -0.1082   58.8813 H       1  ZINC001310073555    0.0800
     54 H54       -12.1070   -0.4204   60.8605 H       1  ZINC001310073555    0.0700
     55 H55       -10.6868    0.1871   61.7451 H       1  ZINC001310073555    0.0800
     56 H56       -11.4352    1.1816   60.4726 H       1  ZINC001310073555    0.0700
     57 H57        -9.2698   -2.3568   59.4259 H       1  ZINC001310073555    0.0800
     58 H58        -9.4224   -1.8793   61.1338 H       1  ZINC001310073555    0.0700
     59 H59       -10.8426   -2.4867   60.2494 H       1  ZINC001310073555    0.0600
@<TRIPOS>BOND
     1     1     2    1
     2     1    28    1
     3     1    29    1
     4     1    30    1
     5     2     3    1
     6     2    31    1
     7     2    32    1
     8     3     4    1
     9     3     6    1
    10     3    21    1
    11     4     5    1
    12     4    33    1
    13     4    34    1
    14     5    35    1
    15     5    36    1
    16     5    37    1
    17     6     7    1
    18     6    38    1
    19     6    39    1
    20     7     8   am
    21     7    40    1
    22     8     9    2
    23     8    10   am
    24    10    11    1
    25    10    41    1
    26    11    18   ar
    27    11    12   ar
    28    12    13   ar
    29    12    42    1
    30    13    14   ar
    31    13    43    1
    32    14    15    1
    33    14    17   ar
    34    15    16    1
    35    16    44    1
    36    16    45    1
    37    16    46    1
    38    17    18   ar
    39    17    47    1
    40    18    19    1
    41    19    20    1
    42    20    48    1
    43    20    49    1
    44    20    50    1
    45    21    22    2
    46    21    23    1
    47    23    24    1
    48    24    25    1
    49    24    26    1
    50    24    27    1
    51    25    51    1
    52    25    52    1
    53    25    53    1
    54    26    54    1
    55    26    55    1
    56    26    56    1
    57    27    57    1
    58    27    58    1
    59    27    59    1
@<TRIPOS>SUBSTRUCTURE
     1 ZINC001310073555        1 TEMP              0 ****  ****    0 ROOT


##########                                Name:    ZINC000854500114
##########                DOCK_Rotatable_Bonds:                   7
##########                         Heavy_Atoms:                  24
##########                    Molecular_Weight:             399.288
##########                DOCK_Rotatable_Bonds:                   7
##########                       Formal_Charge:          -0.0399992
##########                     HBond_Acceptors:                   7
##########                        HBond_Donors:                   2
##########                         Heavy_Atoms:                  24
##########                          Grid_Score:          -30.110958
##########                     Grid_vdw_energy:          -28.659456
##########                      Grid_es_energy:           -1.451502
##########           Internal_energy_repulsive:           79.929840

@<TRIPOS>MOLECULE
ZINC000854500114
 47 49 1 0 0
SMALL
USER_CHARGES


@<TRIPOS>ATOM
      1 O1         -5.0640    3.1897   53.4402 O.2     1  ZINC000854500114   -0.5800
      2 C2         -5.0059    2.7654   52.3030 C.2     1  ZINC000854500114    0.6600
      3 N3         -5.6065    1.6010   51.9867 N.am    1  ZINC000854500114   -0.7100
      4 C4         -6.3245    0.8440   53.0152 C.3     1  ZINC000854500114    0.1600
      5 C5         -7.5755    1.6243   53.4689 C.3     1  ZINC000854500114   -0.1400
      6 C6         -8.7235    1.0310   52.6149 C.3     1  ZINC000854500114   -0.1300
      7 C7         -8.3629   -0.4741   52.5558 C.3     1  ZINC000854500114   -0.1300
      8 C8         -6.8251   -0.4902   52.4346 C.3     1  ZINC000854500114   -0.1300
      9 O9         -4.3461    3.4610   51.3579 O.3     1  ZINC000854500114   -0.3600
     10 C10        -3.7496    2.6996   50.2750 C.3     1  ZINC000854500114    0.1000
     11 C11        -2.3012    2.3573   50.6297 C.3     1  ZINC000854500114    0.1500
     12 H12        -2.2831    1.7066   51.5039 H       1  ZINC000854500114    0.0900
     13 C13        -1.5284    3.6450   50.9319 C.3     1  ZINC000854500114   -0.1300
     14 C14        -0.0511    3.3096   51.1491 C.3     1  ZINC000854500114   -0.1200
     15 C15         0.5254    2.6881   49.8750 C.3     1  ZINC000854500114   -0.1400
     16 C16        -0.2241    1.3895   49.5608 C.3     1  ZINC000854500114    0.0900
     17 N17        -1.6642    1.6753   49.4949 N.am    1  ZINC000854500114   -0.6100
     18 C18        -2.3852    1.3232   48.4120 C.2     1  ZINC000854500114    0.5900
     19 O19        -3.5764    1.5655   48.3695 O.2     1  ZINC000854500114   -0.4900
     20 C20        -1.7313    0.6458   47.2810 C.2     1  ZINC000854500114   -0.0300
     21 C21        -1.3792    1.2089   46.0667 C.2     1  ZINC000854500114   -0.1200
     22 C22        -0.7932    0.1727   45.3346 C.2     1  ZINC000854500114    0.0200
     23 Br23       -0.0985    0.3029   43.5806 Br      1  ZINC000854500114    0.0400
     24 N24        -0.8105   -0.9040   46.0789 N.2     1  ZINC000854500114   -0.2400
     25 N25        -1.3451   -0.6630   47.2216 N.pl3   1  ZINC000854500114   -0.3700
     26 H26        -5.5635    1.2642   51.0781 H       1  ZINC000854500114    0.4000
     27 H27        -5.6700    0.6584   53.8669 H       1  ZINC000854500114    0.0900
     28 H28        -7.7644    1.4589   54.5296 H       1  ZINC000854500114    0.0800
     29 H29        -7.4572    2.6881   53.2628 H       1  ZINC000854500114    0.0700
     30 H30        -9.6858    1.1788   53.1053 H       1  ZINC000854500114    0.0700
     31 H31        -8.7270    1.4671   51.6160 H       1  ZINC000854500114    0.0700
     32 H32        -8.6789   -0.9783   53.4690 H       1  ZINC000854500114    0.0700
     33 H33        -8.8192   -0.9416   51.6832 H       1  ZINC000854500114    0.0700
     34 H34        -6.5339   -0.5745   51.3876 H       1  ZINC000854500114    0.0700
     35 H35        -6.4143   -1.3232   53.0051 H       1  ZINC000854500114    0.0800
     36 H36        -4.3140    1.7794   50.1239 H       1  ZINC000854500114    0.1000
     37 H37        -3.7693    3.2922   49.3603 H       1  ZINC000854500114    0.0700
     38 H38        -1.6255    4.3331   50.0922 H       1  ZINC000854500114    0.0800
     39 H39        -1.9323    4.1090   51.8317 H       1  ZINC000854500114    0.0900
     40 H40         0.4968    4.2209   51.3887 H       1  ZINC000854500114    0.0800
     41 H41         0.0433    2.6022   51.9731 H       1  ZINC000854500114    0.0700
     42 H42         0.4089    3.3851   49.0453 H       1  ZINC000854500114    0.0700
     43 H43         1.5833    2.4709   50.0226 H       1  ZINC000854500114    0.0800
     44 H44         0.1145    0.9947   48.6029 H       1  ZINC000854500114    0.0800
     45 H45        -0.0345    0.6588   50.3470 H       1  ZINC000854500114    0.0800
     46 H46        -1.5260    2.2314   45.7519 H       1  ZINC000854500114    0.1700
     47 H47        -1.4624   -1.3130   47.9320 H       1  ZINC000854500114    0.4500
@<TRIPOS>BOND
     1     1     2    2
     2     2     3   am
     3     2     9    1
     4     3     4    1
     5     3    26    1
     6     4     8    1
     7     4     5    1
     8     4    27    1
     9     5     6    1
    10     5    28    1
    11     5    29    1
    12     6     7    1
    13     6    30    1
    14     6    31    1
    15     7     8    1
    16     7    32    1
    17     7    33    1
    18     8    34    1
    19     8    35    1
    20     9    10    1
    21    10    11    1
    22    10    36    1
    23    10    37    1
    24    11    12    1
    25    11    17    1
    26    11    13    1
    27    13    14    1
    28    13    38    1
    29    13    39    1
    30    14    15    1
    31    14    40    1
    32    14    41    1
    33    15    16    1
    34    15    42    1
    35    15    43    1
    36    16    17    1
    37    16    44    1
    38    16    45    1
    39    17    18   am
    40    18    19    2
    41    18    20    1
    42    20    25    1
    43    20    21    2
    44    21    22    1
    45    21    46    1
    46    22    23    1
    47    22    24    2
    48    24    25    1
    49    25    47    1
@<TRIPOS>SUBSTRUCTURE
     1 ZINC000854500114        1 TEMP              0 ****  ****    0 ROOT


##########                                Name:    ZINC000518234532
##########                DOCK_Rotatable_Bonds:                   5
##########                         Heavy_Atoms:                  25
##########                    Molecular_Weight:             408.267
##########                DOCK_Rotatable_Bonds:                   5
##########                       Formal_Charge:         -0.00999981
##########                     HBond_Acceptors:                   5
##########                        HBond_Donors:                   1
##########                         Heavy_Atoms:                  25
##########                          Grid_Score:          -30.096334
##########                     Grid_vdw_energy:          -30.495031
##########                      Grid_es_energy:            0.398697
##########           Internal_energy_repulsive:           18.594269

@<TRIPOS>MOLECULE
ZINC000518234532
 44 46 1 0 0
SMALL
USER_CHARGES


@<TRIPOS>ATOM
      1 C1         -2.1665    4.6133   50.0929 C.3     1  ZINC000518234532   -0.1600
      2 C2         -2.4226    3.1094   50.2112 C.3     1  ZINC000518234532    0.1800
      3 H3         -2.0350    2.7487   51.1639 H       1  ZINC000518234532    0.1100
      4 N4         -3.8632    2.8524   50.1412 N.am    1  ZINC000518234532   -0.7300
      5 C5         -4.3385    1.6124   50.3718 C.2     1  ZINC000518234532    0.5200
      6 O6         -3.5736    0.7098   50.6386 O.2     1  ZINC000518234532   -0.5200
      7 C7         -5.8202    1.3477   50.2981 C.3     1  ZINC000518234532   -0.0700
      8 H8         -6.0047    0.4943   49.6455 H       1  ZINC000518234532    0.1100
      9 C9         -6.5314    2.5811   49.7383 C.3     1  ZINC000518234532   -0.1400
     10 C10        -6.3461    1.0477   51.6781 C.ar    1  ZINC000518234532   -0.1000
     11 C11        -7.0666   -0.1090   51.9068 C.ar    1  ZINC000518234532   -0.0600
     12 C12        -7.5493   -0.3845   53.1729 C.ar    1  ZINC000518234532   -0.1300
     13 C13        -7.3122    0.4968   54.2111 C.ar    1  ZINC000518234532   -0.0900
     14 C14        -6.5921    1.6547   53.9845 C.ar    1  ZINC000518234532   -0.1600
     15 C15        -6.1027    1.9283   52.7188 C.ar    1  ZINC000518234532    0.1000
     16 F16        -5.3987    3.0597   52.4962 F       1  ZINC000518234532   -0.1400
     17 C17        -1.7290    2.3915   49.0823 C.ar    1  ZINC000518234532   -0.0600
     18 C18        -2.3215    2.3317   47.8353 C.ar    1  ZINC000518234532   -0.1100
     19 C19        -1.6851    1.6723   46.7941 C.ar    1  ZINC000518234532    0.0800
     20 C20        -0.4491    1.0739   47.0074 C.ar    1  ZINC000518234532    0.0600
     21 C21         0.1403    1.1362   48.2614 C.ar    1  ZINC000518234532   -0.0800
     22 C22        -0.4974    1.7983   49.2943 C.ar    1  ZINC000518234532   -0.0800
     23 Br23        0.3094    1.8824   51.0025 Br      1  ZINC000518234532   -0.0300
     24 O24         0.1960    0.4287   45.9974 O.3     1  ZINC000518234532   -0.3000
     25 C25        -0.5920    0.0663   44.8583 C.3     1  ZINC000518234532    0.0200
     26 C26        -1.4482    1.2765   44.4614 C.3     1  ZINC000518234532    0.0200
     27 O27        -2.2836    1.6185   45.5726 O.3     1  ZINC000518234532   -0.3000
     28 H28        -2.6682    5.1326   50.9095 H       1  ZINC000518234532    0.0700
     29 H29        -1.0947    4.8044   50.1449 H       1  ZINC000518234532    0.0700
     30 H30        -2.5541    4.9741   49.1402 H       1  ZINC000518234532    0.0600
     31 H31        -4.4750    3.5746   49.9291 H       1  ZINC000518234532    0.4000
     32 H32        -6.1511    2.7982   48.7401 H       1  ZINC000518234532    0.0700
     33 H33        -7.6032    2.3897   49.6851 H       1  ZINC000518234532    0.0700
     34 H34        -6.3468    3.4345   50.3909 H       1  ZINC000518234532    0.0700
     35 H35        -7.2531   -0.7979   51.0963 H       1  ZINC000518234532    0.1300
     36 H36        -8.1123   -1.2887   53.3507 H       1  ZINC000518234532    0.1300
     37 H37        -7.6900    0.2808   55.1995 H       1  ZINC000518234532    0.1300
     38 H38        -6.4075    2.3434   54.7957 H       1  ZINC000518234532    0.1400
     39 H39        -3.2814    2.7986   47.6712 H       1  ZINC000518234532    0.1400
     40 H40         1.0998    0.6702   48.4303 H       1  ZINC000518234532    0.1500
     41 H41         0.0624   -0.2084   44.0310 H       1  ZINC000518234532    0.1300
     42 H42        -1.2384   -0.7743   45.1109 H       1  ZINC000518234532    0.0800
     43 H43        -0.8019    2.1189   44.2146 H       1  ZINC000518234532    0.0800
     44 H44        -2.0668    1.0226   43.6007 H       1  ZINC000518234532    0.1300
@<TRIPOS>BOND
     1     1     2    1
     2     1    28    1
     3     1    29    1
     4     1    30    1
     5     2     3    1
     6     2     4    1
     7     2    17    1
     8     4     5   am
     9     4    31    1
    10     5     6    2
    11     5     7    1
    12     7     8    1
    13     7     9    1
    14     7    10    1
    15     9    32    1
    16     9    33    1
    17     9    34    1
    18    10    15   ar
    19    10    11   ar
    20    11    12   ar
    21    11    35    1
    22    12    13   ar
    23    12    36    1
    24    13    14   ar
    25    13    37    1
    26    14    15   ar
    27    14    38    1
    28    15    16    1
    29    17    22   ar
    30    17    18   ar
    31    18    19   ar
    32    18    39    1
    33    19    27    1
    34    19    20   ar
    35    20    21   ar
    36    20    24    1
    37    21    22   ar
    38    21    40    1
    39    22    23    1
    40    24    25    1
    41    25    26    1
    42    25    41    1
    43    25    42    1
    44    26    27    1
    45    26    43    1
    46    26    44    1
@<TRIPOS>SUBSTRUCTURE
     1 ZINC000518234532        1 TEMP              0 ****  ****    0 ROOT


##########                                Name:    ZINC000350493047
##########                DOCK_Rotatable_Bonds:                   7
##########                         Heavy_Atoms:                  24
##########                    Molecular_Weight:             330.387
##########                DOCK_Rotatable_Bonds:                   7
##########                       Formal_Charge:          -0.0300002
##########                     HBond_Acceptors:                   7
##########                        HBond_Donors:                   3
##########                         Heavy_Atoms:                  24
##########                          Grid_Score:          -30.095930
##########                     Grid_vdw_energy:          -29.404079
##########                      Grid_es_energy:           -0.691851
##########           Internal_energy_repulsive:            8.151871

@<TRIPOS>MOLECULE
ZINC000350493047
 46 48 1 0 0
SMALL
USER_CHARGES


@<TRIPOS>ATOM
      1 C1        -11.8370   -1.8168   55.3879 C.3     1  <0>        -0.1600
      2 C2        -10.4994   -2.1072   56.0716 C.3     1  <0>         0.2600
      3 H3        -10.1812   -3.1216   55.8310 H       1  <0>         0.1200
      4 N4        -10.6537   -1.9752   57.5225 N.am    1  <0>        -0.7400
      5 C5        -10.5123   -3.0550   58.3163 C.2     1  <0>         0.7100
      6 N6        -10.6527   -2.9332   59.6513 N.am    1  <0>        -0.8600
      7 O7        -10.2581   -4.1393   57.8283 O.2     1  <0>        -0.5900
      8 C8         -9.4633   -1.1269   55.5853 C.2     1  <0>         0.1700
      9 N9         -8.9376   -0.1594   56.2770 N.2     1  <0>        -0.3800
     10 O10        -8.1335    0.4535   55.6070 O.3     1  <0>         0.0900
     11 C11        -8.0659   -0.0830   54.3785 C.2     1  <0>         0.2400
     12 C12        -7.2091    0.3695   53.2643 C.ar    1  <0>        -0.0800
     13 C13        -7.4063   -0.1388   51.9782 C.ar    1  <0>        -0.0200
     14 C14        -6.6048    0.2859   50.9413 C.ar    1  <0>        -0.2200
     15 C15        -5.6010    1.2181   51.1736 C.ar    1  <0>         0.1700
     16 O16        -4.8129    1.6337   50.1491 O.3     1  <0>        -0.3000
     17 C17        -3.4294    1.8438   50.4386 C.3     1  <0>         0.0800
     18 C18        -2.5746    1.1070   49.4056 C.3     1  <0>        -0.1500
     19 C19        -1.0933    1.3318   49.7155 C.3     1  <0>        -0.1200
     20 C20        -0.7823    2.8288   49.6605 C.3     1  <0>        -0.1300
     21 C21        -1.6371    3.5657   50.6936 C.3     1  <0>        -0.1200
     22 C22        -3.1184    3.3408   50.3836 C.3     1  <0>        -0.1200
     23 C23        -5.4019    1.7264   52.4513 C.ar    1  <0>        -0.1600
     24 C24        -6.2029    1.3113   53.4924 C.ar    1  <0>        -0.0300
     25 N25        -8.9122   -1.0984   54.3620 N.2     1  <0>        -0.4700
     26 H26       -12.1552   -0.8024   55.6286 H       1  <0>         0.0600
     27 H27       -11.7222   -1.9150   54.3085 H       1  <0>         0.0700
     28 H28       -12.5864   -2.5257   55.7397 H       1  <0>         0.0800
     29 H29       -10.8576   -1.1104   57.9118 H       1  <0>         0.4000
     30 H30       -10.5497   -3.7103   60.2226 H       1  <0>         0.4000
     31 H31       -10.8567   -2.0685   60.0406 H       1  <0>         0.4200
     32 H32        -8.1859   -0.8639   51.7971 H       1  <0>         0.1400
     33 H33        -6.7566   -0.1066   49.9467 H       1  <0>         0.1400
     34 H34        -3.2047    1.4624   51.4347 H       1  <0>         0.0800
     35 H35        -2.7962    0.0404   49.4448 H       1  <0>         0.0700
     36 H36        -2.7994    1.4884   48.4095 H       1  <0>         0.0800
     37 H37        -0.8686    0.9504   50.7116 H       1  <0>         0.0600
     38 H38        -0.4843    0.8069   48.9796 H       1  <0>         0.0700
     39 H39         0.2731    2.9890   49.8813 H       1  <0>         0.0700
     40 H40        -1.0070    3.2103   48.6644 H       1  <0>         0.0700
     41 H41        -1.4124    3.1842   51.6896 H       1  <0>         0.0700
     42 H42        -1.4155    4.6322   50.6543 H       1  <0>         0.0700
     43 H43        -3.3431    3.7223   49.3875 H       1  <0>         0.0800
     44 H44        -3.7273    3.8658   51.1196 H       1  <0>         0.0700
     45 H45        -4.6208    2.4511   52.6277 H       1  <0>         0.1400
     46 H46        -6.0477    1.7071   54.4852 H       1  <0>         0.1400
@<TRIPOS>BOND
     1     1     2    1
     2     1    26    1
     3     1    27    1
     4     1    28    1
     5     2     3    1
     6     2     4    1
     7     2     8    1
     8     4     5   am
     9     4    29    1
    10     5     6   am
    11     5     7    2
    12     6    30    1
    13     6    31    1
    14     8    25    1
    15     8     9    2
    16     9    10    1
    17    10    11    1
    18    11    12    1
    19    11    25    2
    20    12    24   ar
    21    12    13   ar
    22    13    14   ar
    23    13    32    1
    24    14    15   ar
    25    14    33    1
    26    15    16    1
    27    15    23   ar
    28    16    17    1
    29    17    22    1
    30    17    18    1
    31    17    34    1
    32    18    19    1
    33    18    35    1
    34    18    36    1
    35    19    20    1
    36    19    37    1
    37    19    38    1
    38    20    21    1
    39    20    39    1
    40    20    40    1
    41    21    22    1
    42    21    41    1
    43    21    42    1
    44    22    43    1
    45    22    44    1
    46    23    24   ar
    47    23    45    1
    48    24    46    1
@<TRIPOS>SUBSTRUCTURE
     1 <0>         1 TEMP              0 ****  ****    0 ROOT


##########                                Name:    ZINC000076573199
##########                DOCK_Rotatable_Bonds:                  10
##########                         Heavy_Atoms:                  24
##########                    Molecular_Weight:             333.431
##########                DOCK_Rotatable_Bonds:                  10
##########                       Formal_Charge:          -0.0200009
##########                     HBond_Acceptors:                   6
##########                        HBond_Donors:                   3
##########                         Heavy_Atoms:                  24
##########                          Grid_Score:          -30.076958
##########                     Grid_vdw_energy:          -29.981852
##########                      Grid_es_energy:           -0.095106
##########           Internal_energy_repulsive:           23.601894

@<TRIPOS>MOLECULE
ZINC000076573199
 51 51 1 0 0
SMALL
USER_CHARGES


@<TRIPOS>ATOM
      1 C1          3.8137    0.1619   42.3749 C.3     1  ZINC000076573199   -0.1500
      2 C2          3.2421    0.0196   43.7871 C.3     1  ZINC000076573199   -0.1200
      3 C3          1.8178    0.5776   43.8193 C.3     1  ZINC000076573199   -0.1000
      4 H4          1.1948    0.0241   43.1169 H       1  ZINC000076573199    0.0700
      5 C5          1.8402    2.0559   43.4259 C.3     1  ZINC000076573199   -0.1500
      6 C6          1.2458    0.4342   45.2311 C.3     1  ZINC000076573199   -0.1200
      7 C7         -0.2450    0.7776   45.2146 C.3     1  ZINC000076573199    0.1400
      8 H8         -0.3976    1.7079   44.6675 H       1  ZINC000076573199    0.1000
      9 C9         -1.0206   -0.3497   44.5300 C.3     1  ZINC000076573199   -0.1700
     10 N10        -0.7251    0.9354   46.5897 N.am    1  ZINC000076573199   -0.6900
     11 C11        -1.8564    1.6263   46.8335 C.2     1  ZINC000076573199    0.5100
     12 O12        -2.4766    2.1190   45.9139 O.2     1  ZINC000076573199   -0.5100
     13 C13        -2.3467    1.7857   48.2352 C.2     1  ZINC000076573199    0.5100
     14 O14        -1.7297    1.2878   49.1543 O.2     1  ZINC000076573199   -0.5000
     15 N15        -3.4743    2.4823   48.4796 N.am    1  ZINC000076573199   -0.6400
     16 C16        -3.9330    2.6313   49.7909 C.ar    1  ZINC000076573199    0.1500
     17 C17        -3.5901    3.7612   50.5237 C.ar    1  ZINC000076573199   -0.1300
     18 C18        -4.0438    3.9092   51.8203 C.ar    1  ZINC000076573199   -0.0800
     19 C19        -4.8394    2.9355   52.3925 C.ar    1  ZINC000076573199   -0.1200
     20 C20        -5.3323    3.1015   53.8068 C.3     1  ZINC000076573199   -0.1100
     21 C21        -5.1860    1.8033   51.6651 C.ar    1  ZINC000076573199    0.1600
     22 N22        -5.9918    0.8177   52.2457 N.am    1  ZINC000076573199   -0.6700
     23 C23        -7.2291    0.5883   51.7630 C.2     1  ZINC000076573199    0.5100
     24 C24        -8.0971   -0.4732   52.3881 C.3     1  ZINC000076573199   -0.1700
     25 O25        -7.6441    1.2363   50.8255 O.2     1  ZINC000076573199   -0.5200
     26 C26        -4.7367    1.6537   50.3614 C.ar    1  ZINC000076573199   -0.1400
     27 H27         3.8295    1.2149   42.0939 H       1  ZINC000076573199    0.0600
     28 H28         4.8283   -0.2356   42.3520 H       1  ZINC000076573199    0.0500
     29 H29         3.1904   -0.3922   41.6731 H       1  ZINC000076573199    0.0500
     30 H30         3.2263   -1.0333   44.0682 H       1  ZINC000076573199    0.0600
     31 H31         3.8654    0.5738   44.4888 H       1  ZINC000076573199    0.0600
     32 H32         2.3943    2.6227   44.1742 H       1  ZINC000076573199    0.0600
     33 H33         2.3236    2.1663   42.4552 H       1  ZINC000076573199    0.0600
     34 H34         0.8189    2.4321   43.3681 H       1  ZINC000076573199    0.0500
     35 H35         1.3784   -0.5918   45.5744 H       1  ZINC000076573199    0.0800
     36 H36         1.7677    1.1133   45.9053 H       1  ZINC000076573199    0.0700
     37 H37        -2.0827   -0.1050   44.5182 H       1  ZINC000076573199    0.0600
     38 H38        -0.6635   -0.4671   43.5068 H       1  ZINC000076573199    0.0700
     39 H39        -0.8680   -1.2801   45.0771 H       1  ZINC000076573199    0.0600
     40 H40        -0.2288    0.5426   47.3248 H       1  ZINC000076573199    0.4100
     41 H41        -3.9674    2.8802   47.7450 H       1  ZINC000076573199    0.4200
     42 H42        -2.9679    4.5240   50.0794 H       1  ZINC000076573199    0.1400
     43 H43        -3.7756    4.7879   52.3879 H       1  ZINC000076573199    0.1300
     44 H44        -6.2900    3.6219   53.7990 H       1  ZINC000076573199    0.0700
     45 H45        -5.4555    2.1208   54.2661 H       1  ZINC000076573199    0.0600
     46 H46        -4.6079    3.6819   54.3782 H       1  ZINC000076573199    0.0700
     47 H47        -5.6600    0.2994   52.9955 H       1  ZINC000076573199    0.4100
     48 H48        -8.2643   -0.2338   53.4383 H       1  ZINC000076573199    0.0900
     49 H49        -9.0541   -0.5130   51.8678 H       1  ZINC000076573199    0.1000
     50 H50        -7.6008   -1.4405   52.3106 H       1  ZINC000076573199    0.0900
     51 H51        -5.0048    0.7746   49.7941 H       1  ZINC000076573199    0.1400
@<TRIPOS>BOND
     1     1     2    1
     2     1    27    1
     3     1    28    1
     4     1    29    1
     5     2     3    1
     6     2    30    1
     7     2    31    1
     8     3     4    1
     9     3     5    1
    10     3     6    1
    11     5    32    1
    12     5    33    1
    13     5    34    1
    14     6     7    1
    15     6    35    1
    16     6    36    1
    17     7     8    1
    18     7     9    1
    19     7    10    1
    20     9    37    1
    21     9    38    1
    22     9    39    1
    23    10    11   am
    24    10    40    1
    25    11    12    2
    26    11    13    1
    27    13    14    2
    28    13    15   am
    29    15    16    1
    30    15    41    1
    31    16    26   ar
    32    16    17   ar
    33    17    18   ar
    34    17    42    1
    35    18    19   ar
    36    18    43    1
    37    19    20    1
    38    19    21   ar
    39    20    44    1
    40    20    45    1
    41    20    46    1
    42    21    22    1
    43    21    26   ar
    44    22    23   am
    45    22    47    1
    46    23    24    1
    47    23    25    2
    48    24    48    1
    49    24    49    1
    50    24    50    1
    51    26    51    1
@<TRIPOS>SUBSTRUCTURE
     1 ZINC000076573199        1 TEMP              0 ****  ****    0 ROOT


##########                                Name:    ZINC000543625960
##########                DOCK_Rotatable_Bonds:                   8
##########                         Heavy_Atoms:                  29
##########                    Molecular_Weight:             416.544
##########                DOCK_Rotatable_Bonds:                   8
##########                       Formal_Charge:           -0.010001
##########                     HBond_Acceptors:                   8
##########                        HBond_Donors:                   2
##########                         Heavy_Atoms:                  29
##########                          Grid_Score:          -30.049644
##########                     Grid_vdw_energy:          -29.742773
##########                      Grid_es_energy:           -0.306872
##########           Internal_energy_repulsive:           17.679615

@<TRIPOS>MOLECULE
ZINC000543625960
 57 59 1 0 0
SMALL
USER_CHARGES


@<TRIPOS>ATOM
      1 C1        -13.6612   -2.2938   61.1751 C.3     1  ZINC000543625960   -0.1500
      2 C2        -14.2371   -1.8175   59.8402 C.3     1  ZINC000543625960   -0.1300
      3 C3        -14.0944   -2.9283   58.7977 C.3     1  ZINC000543625960    0.1500
      4 H4        -14.4090   -2.5547   57.8233 H       1  ZINC000543625960    0.0800
      5 C5        -14.9715   -4.1170   59.1957 C.3     1  ZINC000543625960   -0.1700
      6 N6        -12.6948   -3.3558   58.7281 N.am    1  ZINC000543625960   -1.1100
      7 S7        -12.0680   -3.9086   57.2986 S.o2    1  ZINC000543625960    2.7000
      8 O8        -10.6762   -4.0950   57.5161 O.2     1  ZINC000543625960   -0.9600
      9 O9        -12.9315   -4.9470   56.8567 O.2     1  ZINC000543625960   -0.9500
     10 C10       -12.2177   -2.6035   56.1241 C.ar    1  ZINC000543625960   -0.6600
     11 C11       -13.3601   -2.4964   55.3528 C.ar    1  ZINC000543625960   -0.0400
     12 C12       -13.4815   -1.4736   54.4298 C.ar    1  ZINC000543625960   -0.1200
     13 C13       -12.4612   -0.5557   54.2760 C.ar    1  ZINC000543625960   -0.0600
     14 C14       -11.3125   -0.6604   55.0497 C.ar    1  ZINC000543625960    0.1500
     15 N15       -10.2767    0.2682   54.8962 N.am    1  ZINC000543625960   -0.6800
     16 C16        -9.1251   -0.0994   54.3005 C.2     1  ZINC000543625960    0.7200
     17 O17        -8.9860   -1.2376   53.8963 O.2     1  ZINC000543625960   -0.5600
     18 N18        -8.1275    0.7948   54.1526 N.am    1  ZINC000543625960   -0.6300
     19 C19        -6.8215    0.5284   53.5227 C.3     1  ZINC000543625960    0.0900
     20 C20        -6.3225    1.9144   53.0433 C.3     1  ZINC000543625960   -0.1000
     21 H21        -5.2353    1.9334   52.9673 H       1  ZINC000543625960    0.1000
     22 C22        -6.9692    2.2994   51.7112 C.3     1  ZINC000543625960   -0.1500
     23 C23        -6.8162    2.8367   54.1891 C.3     1  ZINC000543625960   -0.1200
     24 C24        -8.1638    2.1988   54.5871 C.3     1  ZINC000543625960    0.2000
     25 H25        -8.9822    2.7235   54.0941 H       1  ZINC000543625960    0.0900
     26 C26        -8.3402    2.2644   56.0823 C.ar    1  ZINC000543625960   -0.1400
     27 C27        -7.4905    1.5600   56.9210 C.ar    1  ZINC000543625960   -0.0600
     28 C28        -7.6902    1.6505   58.2902 C.ar    1  ZINC000543625960   -0.1700
     29 C29        -8.7222    2.4342   58.7699 C.ar    1  ZINC000543625960    0.1000
     30 N30        -9.5116    3.0908   57.9421 N.ar    1  ZINC000543625960   -0.4800
     31 C31        -9.3480    3.0323   56.6350 C.ar    1  ZINC000543625960    0.1200
     32 C32       -11.1960   -1.6853   55.9790 C.ar    1  ZINC000543625960   -0.0500
     33 H33       -13.7629   -1.5024   61.9177 H       1  ZINC000543625960    0.0600
     34 H34       -14.2033   -3.1782   61.5100 H       1  ZINC000543625960    0.0600
     35 H35       -12.6069   -2.5402   61.0488 H       1  ZINC000543625960    0.0500
     36 H36       -15.2914   -1.5711   59.9665 H       1  ZINC000543625960    0.0700
     37 H37       -13.6950   -0.9331   59.5054 H       1  ZINC000543625960    0.0800
     38 H38       -16.0128   -3.7989   59.2474 H       1  ZINC000543625960    0.0700
     39 H39       -14.8698   -4.9083   58.4530 H       1  ZINC000543625960    0.0700
     40 H40       -14.6568   -4.4906   60.1701 H       1  ZINC000543625960    0.0600
     41 H41       -12.1353   -3.3150   59.5195 H       1  ZINC000543625960    0.4200
     42 H42       -14.1593   -3.2131   55.4709 H       1  ZINC000543625960    0.1400
     43 H43       -14.3749   -1.3927   53.8286 H       1  ZINC000543625960    0.1400
     44 H44       -12.5562    0.2424   53.5547 H       1  ZINC000543625960    0.1400
     45 H45       -10.3877    1.1762   55.2186 H       1  ZINC000543625960    0.4100
     46 H46        -6.1282    0.1066   54.2504 H       1  ZINC000543625960    0.0700
     47 H47        -6.9398   -0.1462   52.6748 H       1  ZINC000543625960    0.0800
     48 H48        -8.0532    2.3149   51.8245 H       1  ZINC000543625960    0.0600
     49 H49        -6.6211    3.2877   51.4105 H       1  ZINC000543625960    0.0600
     50 H50        -6.6939    1.5700   50.9494 H       1  ZINC000543625960    0.0600
     51 H51        -6.1166    2.8217   55.0249 H       1  ZINC000543625960    0.0800
     52 H52        -6.9655    3.8543   53.8280 H       1  ZINC000543625960    0.0900
     53 H53        -6.6921    0.9548   56.5176 H       1  ZINC000543625960    0.1300
     54 H54        -7.0475    1.1149   58.9732 H       1  ZINC000543625960    0.1400
     55 H55        -8.8846    2.5097   59.8349 H       1  ZINC000543625960    0.1600
     56 H56       -10.0144    3.5840   55.9885 H       1  ZINC000543625960    0.1400
     57 H57       -10.3040   -1.7694   56.5822 H       1  ZINC000543625960    0.1400
@<TRIPOS>BOND
     1     1     2    1
     2     1    33    1
     3     1    34    1
     4     1    35    1
     5     2     3    1
     6     2    36    1
     7     2    37    1
     8     3     4    1
     9     3     5    1
    10     3     6    1
    11     5    38    1
    12     5    39    1
    13     5    40    1
    14     6     7   am
    15     6    41    1
    16     7     8    2
    17     7     9    2
    18     7    10    1
    19    10    32   ar
    20    10    11   ar
    21    11    12   ar
    22    11    42    1
    23    12    13   ar
    24    12    43    1
    25    13    14   ar
    26    13    44    1
    27    14    15    1
    28    14    32   ar
    29    15    16   am
    30    15    45    1
    31    16    17    2
    32    16    18   am
    33    18    24    1
    34    18    19    1
    35    19    20    1
    36    19    46    1
    37    19    47    1
    38    20    21    1
    39    20    22    1
    40    20    23    1
    41    22    48    1
    42    22    49    1
    43    22    50    1
    44    23    24    1
    45    23    51    1
    46    23    52    1
    47    24    25    1
    48    24    26    1
    49    26    31   ar
    50    26    27   ar
    51    27    28   ar
    52    27    53    1
    53    28    29   ar
    54    28    54    1
    55    29    30   ar
    56    29    55    1
    57    30    31   ar
    58    31    56    1
    59    32    57    1
@<TRIPOS>SUBSTRUCTURE
     1 ZINC000543625960        1 TEMP              0 ****  ****    0 ROOT


##########                                Name:    ZINC001300804061
##########                DOCK_Rotatable_Bonds:                   5
##########                         Heavy_Atoms:                  27
##########                    Molecular_Weight:              390.55
##########                DOCK_Rotatable_Bonds:                   5
##########                       Formal_Charge:                0.01
##########                     HBond_Acceptors:                   7
##########                        HBond_Donors:                   0
##########                         Heavy_Atoms:                  27
##########                          Grid_Score:          -30.046782
##########                     Grid_vdw_energy:          -29.112869
##########                      Grid_es_energy:           -0.933912
##########           Internal_energy_repulsive:           10.947278

@<TRIPOS>MOLECULE
ZINC001300804061
 57 60 1 0 0
SMALL
USER_CHARGES


@<TRIPOS>ATOM
      1 C1        -13.5062    0.2511   52.5941 C.3     1  ZINC001300804061    0.0300
      2 O2        -12.5330   -0.4570   53.3646 O.3     1  ZINC001300804061   -0.3800
      3 C3        -11.3739    0.3140   53.6872 C.3     1  ZINC001300804061    0.1000
      4 H4        -11.5808    1.3706   53.5174 H       1  ZINC001300804061    0.0700
      5 C5        -10.2051   -0.1262   52.8028 C.3     1  ZINC001300804061    0.0500
      6 N6         -9.0082    0.6512   53.1483 N.3     1  ZINC001300804061   -0.4600
      7 C7         -7.9667    0.3707   52.2803 C.2     1  ZINC001300804061    0.3600
      8 N8         -7.6585   -0.8076   51.7891 N.2     1  ZINC001300804061   -0.3000
      9 N9         -6.6365   -0.7115   51.0160 N.2     1  ZINC001300804061   -0.2500
     10 C10        -6.2284    0.5376   50.9660 C.2     1  ZINC001300804061    0.2600
     11 C11        -5.0893    1.0560   50.1922 C.2     1  ZINC001300804061    0.0400
     12 C12        -5.1541    1.9859   49.1984 C.2     1  ZINC001300804061   -0.1300
     13 C13        -3.8369    2.1817   48.7402 C.2     1  ZINC001300804061   -0.2100
     14 C14        -3.0408    1.3725   49.4668 C.2     1  ZINC001300804061    0.0100
     15 C15        -1.5459    1.2494   49.3204 C.3     1  ZINC001300804061   -0.0800
     16 O16        -3.7992    0.6982   50.3468 O.3     1  ZINC001300804061   -0.1700
     17 N17        -7.0729    1.2695   51.7711 N.pl3   1  ZINC001300804061   -0.4600
     18 C18        -7.0187    2.7098   52.0334 C.3     1  ZINC001300804061    0.1200
     19 C19        -8.3094    3.3669   51.5404 C.3     1  ZINC001300804061   -0.1000
     20 H20        -9.1634    2.7645   51.8502 H       1  ZINC001300804061    0.0900
     21 C21        -8.2809    3.4600   50.0177 C.3     1  ZINC001300804061   -0.1200
     22 C22        -9.6499    3.8602   49.4755 C.3     1  ZINC001300804061   -0.1200
     23 C23        -9.9413    5.3230   49.8205 C.3     1  ZINC001300804061   -0.0800
     24 S24       -10.0124    5.4968   51.6283 S.3     1  ZINC001300804061   -0.2600
     25 C25        -8.4296    4.7681   52.1455 C.3     1  ZINC001300804061   -0.0700
     26 C26        -8.6085    0.4191   54.5421 C.3     1  ZINC001300804061    0.0600
     27 C27        -9.7296    0.8757   55.4785 C.3     1  ZINC001300804061   -0.1100
     28 C28       -11.0069    0.0947   55.1574 C.3     1  ZINC001300804061   -0.0900
     29 H29       -10.8390   -0.9675   55.3356 H       1  ZINC001300804061    0.0800
     30 C30       -12.1465    0.5889   56.0507 C.3     1  ZINC001300804061   -0.1400
     31 H31       -13.8455    1.1243   53.1514 H       1  ZINC001300804061    0.0400
     32 H32       -13.0608    0.5716   51.6523 H       1  ZINC001300804061    0.0400
     33 H33       -14.3545   -0.4026   52.3911 H       1  ZINC001300804061    0.0900
     34 H34       -10.0081   -1.1864   52.9623 H       1  ZINC001300804061    0.0700
     35 H35       -10.4580    0.0424   51.7560 H       1  ZINC001300804061    0.0800
     36 H36        -6.0436    2.4774   48.8326 H       1  ZINC001300804061    0.1600
     37 H37        -3.5239    2.8537   47.9548 H       1  ZINC001300804061    0.1600
     38 H38        -1.0561    1.9684   49.9772 H       1  ZINC001300804061    0.0900
     39 H39        -1.2362    0.2400   49.5914 H       1  ZINC001300804061    0.0800
     40 H40        -1.2642    1.4507   48.2869 H       1  ZINC001300804061    0.0900
     41 H41        -6.9104    2.8802   53.1045 H       1  ZINC001300804061    0.1100
     42 H42        -6.1670    3.1428   51.5086 H       1  ZINC001300804061    0.1000
     43 H43        -7.5441    4.2050   49.7175 H       1  ZINC001300804061    0.0700
     44 H44        -8.0002    2.4914   49.6041 H       1  ZINC001300804061    0.0800
     45 H45        -9.6612    3.7346   48.3928 H       1  ZINC001300804061    0.0800
     46 H46       -10.4153    3.2241   49.9201 H       1  ZINC001300804061    0.0800
     47 H47        -9.1483    5.9569   49.4236 H       1  ZINC001300804061    0.0800
     48 H48       -10.8975    5.6169   49.3875 H       1  ZINC001300804061    0.1100
     49 H49        -8.3977    4.6983   53.2328 H       1  ZINC001300804061    0.1000
     50 H50        -7.6080    5.3919   51.7933 H       1  ZINC001300804061    0.0900
     51 H51        -8.4190   -0.6435   54.6936 H       1  ZINC001300804061    0.0600
     52 H52        -7.7018    0.9841   54.7588 H       1  ZINC001300804061    0.0800
     53 H53        -9.4390    0.6890   56.5123 H       1  ZINC001300804061    0.0800
     54 H54        -9.9102    1.9413   55.3375 H       1  ZINC001300804061    0.0800
     55 H55       -12.3153    1.6505   55.8703 H       1  ZINC001300804061    0.0500
     56 H56       -13.0553    0.0324   55.8216 H       1  ZINC001300804061    0.0600
     57 H57       -11.8809    0.4358   57.0967 H       1  ZINC001300804061    0.0600
@<TRIPOS>BOND
     1     1     2    1
     2     1    31    1
     3     1    32    1
     4     1    33    1
     5     2     3    1
     6     3     4    1
     7     3    28    1
     8     3     5    1
     9     5     6    1
    10     5    34    1
    11     5    35    1
    12     6     7    1
    13     6    26    1
    14     7    17    1
    15     7     8    2
    16     8     9    1
    17     9    10    2
    18    10    11    1
    19    10    17    1
    20    11    16    1
    21    11    12    2
    22    12    13    1
    23    12    36    1
    24    13    14    2
    25    13    37    1
    26    14    15    1
    27    14    16    1
    28    15    38    1
    29    15    39    1
    30    15    40    1
    31    17    18    1
    32    18    19    1
    33    18    41    1
    34    18    42    1
    35    19    20    1
    36    19    25    1
    37    19    21    1
    38    21    22    1
    39    21    43    1
    40    21    44    1
    41    22    23    1
    42    22    45    1
    43    22    46    1
    44    23    24    1
    45    23    47    1
    46    23    48    1
    47    24    25    1
    48    25    49    1
    49    25    50    1
    50    26    27    1
    51    26    51    1
    52    26    52    1
    53    27    28    1
    54    27    53    1
    55    27    54    1
    56    28    29    1
    57    28    30    1
    58    30    55    1
    59    30    56    1
    60    30    57    1
@<TRIPOS>SUBSTRUCTURE
     1 ZINC001300804061        1 TEMP              0 ****  ****    0 ROOT


##########                                Name:    ZINC001120957943
##########                DOCK_Rotatable_Bonds:                   4
##########                         Heavy_Atoms:                  27
##########                    Molecular_Weight:             396.802
##########                DOCK_Rotatable_Bonds:                   4
##########                       Formal_Charge:          -0.0199996
##########                     HBond_Acceptors:                  10
##########                        HBond_Donors:                   0
##########                         Heavy_Atoms:                  27
##########                          Grid_Score:          -30.032686
##########                     Grid_vdw_energy:          -30.060095
##########                      Grid_es_energy:            0.027408
##########           Internal_energy_repulsive:            5.959478

@<TRIPOS>MOLECULE
ZINC001120957943
 43 46 1 0 0
SMALL
USER_CHARGES


@<TRIPOS>ATOM
      1 C1         -5.0250    4.3311   50.9960 C.3     1  ZINC001120957943    0.0900
      2 N2         -5.0243    3.2159   50.0460 N.pl3   1  ZINC001120957943   -0.6000
      3 C3         -6.2917    2.6255   49.6085 C.3     1  ZINC001120957943    0.2200
      4 C4         -6.6125    1.4305   50.4686 C.2     1  ZINC001120957943    0.1600
      5 N5         -6.1994    0.2034   50.2802 N.2     1  ZINC001120957943   -0.2500
      6 N6         -6.6664   -0.5604   51.2076 N.2     1  ZINC001120957943   -0.2800
      7 C7         -7.3936    0.1422   52.0221 C.2     1  ZINC001120957943    0.1700
      8 C8         -8.1419   -0.3175   53.2479 C.3     1  ZINC001120957943   -0.0300
      9 C9         -9.1523    0.7733   53.6276 C.3     1  ZINC001120957943   -0.1300
     10 C10        -8.4468    2.1324   53.6471 C.3     1  ZINC001120957943   -0.1500
     11 H11        -7.5419    2.0630   54.2508 H       1  ZINC001120957943    0.1300
     12 C12        -9.3816    3.1833   54.2490 C.3     1  ZINC001120957943    0.4600
     13 F13       -10.5152    3.3171   53.4401 F       1  ZINC001120957943   -0.1700
     14 F14        -9.7691    2.7825   55.5322 F       1  ZINC001120957943   -0.1800
     15 F15        -8.7155    4.4111   54.3252 F       1  ZINC001120957943   -0.1800
     16 C16        -8.0758    2.5393   52.2162 C.3     1  ZINC001120957943    0.1100
     17 N17        -7.3741    1.4251   51.5796 N.pl3   1  ZINC001120957943   -0.4700
     18 C18        -3.8236    2.7190   49.5609 C.ar    1  ZINC001120957943    0.3700
     19 C19        -2.7900    2.3944   50.4568 C.ar    1  ZINC001120957943    0.0500
     20 N20        -1.6483    1.9230   50.0167 N.ar    1  ZINC001120957943   -0.3900
     21 C21        -1.4617    1.7481   48.7024 C.ar    1  ZINC001120957943    0.0400
     22 C22        -0.2480    1.2441   48.2053 C.ar    1  ZINC001120957943   -0.0600
     23 C23        -0.0854    1.0757   46.8634 C.ar    1  ZINC001120957943   -0.0400
     24 Cl24        1.4163    0.4527   46.2548 Cl      1  ZINC001120957943   -0.0600
     25 C25        -1.1085    1.3963   45.9717 C.ar    1  ZINC001120957943   -0.0800
     26 C26        -2.2970    1.8866   46.4180 C.ar    1  ZINC001120957943   -0.0800
     27 C27        -2.5008    2.0740   47.7959 C.ar    1  ZINC001120957943    0.1400
     28 N28        -3.6621    2.5495   48.2622 N.ar    1  ZINC001120957943   -0.4700
     29 H29        -4.9849    3.9418   52.0134 H       1  ZINC001120957943    0.0700
     30 H30        -4.1561    4.9636   50.8146 H       1  ZINC001120957943    0.0800
     31 H31        -5.9347    4.9177   50.8671 H       1  ZINC001120957943    0.0700
     32 H32        -7.0877    3.3643   49.7011 H       1  ZINC001120957943    0.1200
     33 H33        -6.2063    2.3119   48.5680 H       1  ZINC001120957943    0.1000
     34 H34        -8.6681   -1.2471   53.0309 H       1  ZINC001120957943    0.1100
     35 H35        -7.4424   -0.4731   54.0692 H       1  ZINC001120957943    0.1000
     36 H36        -9.9593    0.7927   52.8951 H       1  ZINC001120957943    0.0900
     37 H37        -9.5620    0.5620   54.6154 H       1  ZINC001120957943    0.1000
     38 H38        -8.9812    2.7735   51.6563 H       1  ZINC001120957943    0.1000
     39 H39        -7.4232    3.4120   52.2418 H       1  ZINC001120957943    0.1100
     40 H40        -2.9375    2.5348   51.5174 H       1  ZINC001120957943    0.1700
     41 H41         0.5528    0.9916   48.8845 H       1  ZINC001120957943    0.1500
     42 H42        -0.9554    1.2539   44.9120 H       1  ZINC001120957943    0.1400
     43 H43        -3.0806    2.1310   45.7159 H       1  ZINC001120957943    0.1500
@<TRIPOS>BOND
     1     1     2    1
     2     1    29    1
     3     1    30    1
     4     1    31    1
     5     2     3    1
     6     2    18    1
     7     3     4    1
     8     3    32    1
     9     3    33    1
    10     4    17    1
    11     4     5    2
    12     5     6    1
    13     6     7    2
    14     7    17    1
    15     7     8    1
    16     8     9    1
    17     8    34    1
    18     8    35    1
    19     9    10    1
    20     9    36    1
    21     9    37    1
    22    10    11    1
    23    10    12    1
    24    10    16    1
    25    12    13    1
    26    12    14    1
    27    12    15    1
    28    16    17    1
    29    16    38    1
    30    16    39    1
    31    18    28   ar
    32    18    19   ar
    33    19    20   ar
    34    19    40    1
    35    20    21   ar
    36    21    27   ar
    37    21    22   ar
    38    22    23   ar
    39    22    41    1
    40    23    24    1
    41    23    25   ar
    42    25    26   ar
    43    25    42    1
    44    26    27   ar
    45    26    43    1
    46    27    28   ar
@<TRIPOS>SUBSTRUCTURE
     1 ZINC001120957943        1 TEMP              0 ****  ****    0 ROOT


##########                                Name:    ZINC000032503012
##########                DOCK_Rotatable_Bonds:                   8
##########                         Heavy_Atoms:                  27
##########                    Molecular_Weight:             390.503
##########                DOCK_Rotatable_Bonds:                   8
##########                       Formal_Charge:           0.0099995
##########                     HBond_Acceptors:                   7
##########                        HBond_Donors:                   2
##########                         Heavy_Atoms:                  27
##########                          Grid_Score:          -30.031876
##########                     Grid_vdw_energy:          -29.895660
##########                      Grid_es_energy:           -0.136216
##########           Internal_energy_repulsive:           45.569824

@<TRIPOS>MOLECULE
ZINC000032503012
 53 54 1 0 0
SMALL
USER_CHARGES


@<TRIPOS>ATOM
      1 C1         -7.9795    4.9046   50.6189 C.3     1  ZINC000032503012   -0.1200
      2 C2         -7.4975    3.4767   50.6271 C.ar    1  ZINC000032503012   -0.0500
      3 C3         -6.4198    3.1072   49.8440 C.ar    1  ZINC000032503012   -0.1600
      4 C4         -5.9750    1.7978   49.8493 C.ar    1  ZINC000032503012   -0.0700
      5 C5         -6.6070    0.8557   50.6373 C.ar    1  ZINC000032503012   -0.1500
      6 C6         -7.6890    1.2241   51.4239 C.ar    1  ZINC000032503012    0.1300
      7 O7         -8.3123    0.2991   52.2004 O.3     1  ZINC000032503012   -0.2800
      8 C8         -9.2900    0.7806   53.1245 C.3     1  ZINC000032503012    0.0700
      9 H9         -8.9810    1.7536   53.5065 H       1  ZINC000032503012    0.1100
     10 C10       -10.6390    0.9160   52.4154 C.3     1  ZINC000032503012   -0.1800
     11 C11        -9.4198   -0.1904   54.2698 C.2     1  ZINC000032503012    0.5200
     12 O12        -9.1684   -1.3648   54.1006 O.2     1  ZINC000032503012   -0.4900
     13 N13        -9.8152    0.2462   55.4820 N.am    1  ZINC000032503012   -0.6700
     14 C14        -9.9357   -0.6552   56.5453 C.ar    1  ZINC000032503012    0.1300
     15 C15        -9.1746   -0.4822   57.6937 C.ar    1  ZINC000032503012   -0.0600
     16 C16        -9.2958   -1.3738   58.7417 C.ar    1  ZINC000032503012   -0.1200
     17 C17       -10.1735   -2.4380   58.6479 C.ar    1  ZINC000032503012   -0.0300
     18 C18       -10.9328   -2.6133   57.5053 C.ar    1  ZINC000032503012   -0.6600
     19 S19       -12.0499   -3.9712   57.3908 S.o2    1  ZINC000032503012    2.7000
     20 O20       -12.8177   -3.7608   56.2136 O.2     1  ZINC000032503012   -0.9600
     21 O21       -11.2804   -5.1441   57.6175 O.2     1  ZINC000032503012   -0.9500
     22 N22       -13.1022   -3.8489   58.6635 N.am    1  ZINC000032503012   -1.1100
     23 C23       -13.9473   -2.6604   58.8036 C.3     1  ZINC000032503012    0.1700
     24 C24       -15.1166   -2.7473   57.8208 C.3     1  ZINC000032503012   -0.1900
     25 C25       -14.4871   -2.5842   60.2332 C.3     1  ZINC000032503012   -0.1500
     26 C26       -13.1205   -1.4085   58.5033 C.3     1  ZINC000032503012   -0.1800
     27 C27       -10.8211   -1.7217   56.4567 C.ar    1  ZINC000032503012   -0.0400
     28 C28        -8.1295    2.5394   51.4212 C.ar    1  ZINC000032503012   -0.2100
     29 H29        -7.4540    5.4698   51.3885 H       1  ZINC000032503012    0.0700
     30 H30        -7.7824    5.3490   49.6433 H       1  ZINC000032503012    0.0700
     31 H31        -9.0507    4.9275   50.8189 H       1  ZINC000032503012    0.0700
     32 H32        -5.9245    3.8422   49.2270 H       1  ZINC000032503012    0.1300
     33 H33        -5.1331    1.5114   49.2365 H       1  ZINC000032503012    0.1300
     34 H34        -6.2596   -0.1669   50.6407 H       1  ZINC000032503012    0.1300
     35 H35       -10.5452    1.6184   51.5872 H       1  ZINC000032503012    0.0800
     36 H36       -10.9480   -0.0570   52.0336 H       1  ZINC000032503012    0.0800
     37 H37       -11.3848    1.2833   53.1204 H       1  ZINC000032503012    0.0800
     38 H38       -10.0163    1.1856   55.6173 H       1  ZINC000032503012    0.4100
     39 H39        -8.4883    0.3485   57.7673 H       1  ZINC000032503012    0.1400
     40 H40        -8.7041   -1.2398   59.6352 H       1  ZINC000032503012    0.1400
     41 H41       -10.2662   -3.1339   59.4686 H       1  ZINC000032503012    0.1500
     42 H42       -13.1591   -4.5642   59.3162 H       1  ZINC000032503012    0.4200
     43 H43       -15.5988   -3.7203   57.9149 H       1  ZINC000032503012    0.0700
     44 H44       -15.8379   -1.9612   58.0439 H       1  ZINC000032503012    0.0800
     45 H45       -14.7461   -2.6224   56.8033 H       1  ZINC000032503012    0.0700
     46 H46       -13.6542   -2.5223   60.9334 H       1  ZINC000032503012    0.0700
     47 H47       -15.1159   -1.6999   60.3374 H       1  ZINC000032503012    0.0700
     48 H48       -15.0762   -3.4760   60.4471 H       1  ZINC000032503012    0.0600
     49 H49       -12.9027   -1.3643   57.4361 H       1  ZINC000032503012    0.0900
     50 H50       -13.6836   -0.5223   58.7962 H       1  ZINC000032503012    0.0700
     51 H51       -12.1863   -1.4470   59.0635 H       1  ZINC000032503012    0.0600
     52 H52       -11.4142   -1.8592   55.5647 H       1  ZINC000032503012    0.1400
     53 H53        -8.9716    2.8286   52.0327 H       1  ZINC000032503012    0.1300
@<TRIPOS>BOND
     1     1     2    1
     2     1    29    1
     3     1    30    1
     4     1    31    1
     5     2    28   ar
     6     2     3   ar
     7     3     4   ar
     8     3    32    1
     9     4     5   ar
    10     4    33    1
    11     5     6   ar
    12     5    34    1
    13     6     7    1
    14     6    28   ar
    15     7     8    1
    16     8     9    1
    17     8    10    1
    18     8    11    1
    19    10    35    1
    20    10    36    1
    21    10    37    1
    22    11    12    2
    23    11    13   am
    24    13    14    1
    25    13    38    1
    26    14    27   ar
    27    14    15   ar
    28    15    16   ar
    29    15    39    1
    30    16    17   ar
    31    16    40    1
    32    17    18   ar
    33    17    41    1
    34    18    19    1
    35    18    27   ar
    36    19    20    2
    37    19    21    2
    38    19    22   am
    39    22    23    1
    40    22    42    1
    41    23    24    1
    42    23    25    1
    43    23    26    1
    44    24    43    1
    45    24    44    1
    46    24    45    1
    47    25    46    1
    48    25    47    1
    49    25    48    1
    50    26    49    1
    51    26    50    1
    52    26    51    1
    53    27    52    1
    54    28    53    1
@<TRIPOS>SUBSTRUCTURE
     1 ZINC000032503012        1 TEMP              0 ****  ****    0 ROOT


##########                                Name:    ZINC001085711660
##########                DOCK_Rotatable_Bonds:                   8
##########                         Heavy_Atoms:                  25
##########                    Molecular_Weight:             347.414
##########                DOCK_Rotatable_Bonds:                   8
##########                       Formal_Charge:         -0.00999993
##########                     HBond_Acceptors:                   7
##########                        HBond_Donors:                   0
##########                         Heavy_Atoms:                  25
##########                          Grid_Score:          -30.031385
##########                     Grid_vdw_energy:          -28.973396
##########                      Grid_es_energy:           -1.057990
##########           Internal_energy_repulsive:           12.898972

@<TRIPOS>MOLECULE
ZINC001085711660
 50 52 1 0 0
SMALL
USER_CHARGES


@<TRIPOS>ATOM
      1 C1        -13.7958   -5.3630   57.1567 C.3     1  ZINC001085711660    0.0300
      2 O2        -13.7941   -4.3431   58.1576 O.3     1  ZINC001085711660   -0.3800
      3 C3        -15.0922   -4.0199   58.6602 C.3     1  ZINC001085711660    0.1400
      4 C4        -14.9753   -2.9186   59.6822 C.2     1  ZINC001085711660    0.0100
      5 C5        -14.8405   -3.0932   61.0153 C.2     1  ZINC001085711660   -0.1900
      6 C6        -14.7666   -1.8164   61.5939 C.2     1  ZINC001085711660   -0.1200
      7 C7        -14.8614   -0.9162   60.5716 C.2     1  ZINC001085711660   -0.0700
      8 C8        -14.8312    0.5440   60.7037 C.2     1  ZINC001085711660    0.6000
      9 O9        -15.7926    1.1337   61.1610 O.2     1  ZINC001085711660   -0.5200
     10 N10       -13.7388    1.2331   60.3187 N.am    1  ZINC001085711660   -0.6000
     11 C11       -13.7086    2.6919   60.4507 C.3     1  ZINC001085711660    0.0700
     12 C12       -12.5814    0.5233   59.7681 C.3     1  ZINC001085711660    0.1300
     13 C13       -11.7759   -0.1009   60.9094 C.3     1  ZINC001085711660    0.0000
     14 H14       -12.1539   -1.0793   61.2060 H       1  ZINC001085711660    0.1000
     15 C15       -11.5512    0.8520   62.0918 C.3     1  ZINC001085711660   -0.1400
     16 C16       -10.1559    0.2125   62.1191 C.3     1  ZINC001085711660    0.0100
     17 N17       -10.3190   -0.0783   60.6812 N.3     1  ZINC001085711660   -0.4500
     18 C18        -9.8149   -1.4189   60.3548 C.3     1  ZINC001085711660    0.1500
     19 H19       -10.3997   -2.1672   60.8897 H       1  ZINC001085711660    0.1000
     20 C20        -8.3463   -1.5267   60.7702 C.3     1  ZINC001085711660   -0.1900
     21 C21        -9.9357   -1.6534   58.8710 C.2     1  ZINC001085711660    0.2000
     22 N22       -10.5342   -2.6647   58.3091 N.2     1  ZINC001085711660   -0.4700
     23 C23       -10.4393   -2.5344   56.9741 C.2     1  ZINC001085711660   -0.0400
     24 C24        -9.7591   -1.4038   56.7221 C.2     1  ZINC001085711660   -0.0500
     25 C25        -9.4120   -0.8518   55.3634 C.3     1  ZINC001085711660   -0.0700
     26 O26        -9.4503   -0.8532   57.9126 O.3     1  ZINC001085711660   -0.2000
     27 O27       -14.9822   -1.6055   59.4182 O.3     1  ZINC001085711660   -0.1500
     28 H28       -14.2172   -6.2786   57.5716 H       1  ZINC001085711660    0.0500
     29 H29       -14.3977   -5.0381   56.3079 H       1  ZINC001085711660    0.0500
     30 H30       -12.7739   -5.5501   56.8269 H       1  ZINC001085711660    0.0900
     31 H31       -15.7275   -3.6877   57.8392 H       1  ZINC001085711660    0.0900
     32 H32       -15.5317   -4.9022   59.1256 H       1  ZINC001085711660    0.0700
     33 H33       -14.7976   -4.0376   61.5375 H       1  ZINC001085711660    0.1600
     34 H34       -14.6563   -1.5900   62.6441 H       1  ZINC001085711660    0.1600
     35 H35       -13.4132    2.9588   61.4653 H       1  ZINC001085711660    0.0600
     36 H36       -12.9910    3.1059   59.7425 H       1  ZINC001085711660    0.0900
     37 H37       -14.6992    3.0960   60.2425 H       1  ZINC001085711660    0.0800
     38 H38       -12.9237   -0.2613   59.0934 H       1  ZINC001085711660    0.0900
     39 H39       -11.9519    1.2246   59.2204 H       1  ZINC001085711660    0.0900
     40 H40       -11.5531    1.9078   61.8207 H       1  ZINC001085711660    0.1000
     41 H41       -12.1615    0.6291   62.9670 H       1  ZINC001085711660    0.0800
     42 H42        -9.3568    0.9228   62.3310 H       1  ZINC001085711660    0.0900
     43 H43       -10.1005   -0.6826   62.7385 H       1  ZINC001085711660    0.0800
     44 H44        -7.7806   -0.7108   60.3203 H       1  ZINC001085711660    0.0800
     45 H45        -8.2704   -1.4661   61.8558 H       1  ZINC001085711660    0.0800
     46 H46        -7.9417   -2.4800   60.4303 H       1  ZINC001085711660    0.0700
     47 H47       -10.8379   -3.2161   56.2372 H       1  ZINC001085711660    0.1800
     48 H48       -10.2100   -0.1911   55.0250 H       1  ZINC001085711660    0.0800
     49 H49        -8.4788   -0.2920   55.4263 H       1  ZINC001085711660    0.0800
     50 H50        -9.2959   -1.6732   54.6564 H       1  ZINC001085711660    0.0900
@<TRIPOS>BOND
     1     1     2    1
     2     1    28    1
     3     1    29    1
     4     1    30    1
     5     2     3    1
     6     3     4    1
     7     3    31    1
     8     3    32    1
     9     4    27    1
    10     4     5    2
    11     5     6    1
    12     5    33    1
    13     6     7    2
    14     6    34    1
    15     7     8    1
    16     7    27    1
    17     8     9    2
    18     8    10   am
    19    10    11    1
    20    10    12    1
    21    11    35    1
    22    11    36    1
    23    11    37    1
    24    12    13    1
    25    12    38    1
    26    12    39    1
    27    13    14    1
    28    13    17    1
    29    13    15    1
    30    15    16    1
    31    15    40    1
    32    15    41    1
    33    16    17    1
    34    16    42    1
    35    16    43    1
    36    17    18    1
    37    18    19    1
    38    18    20    1
    39    18    21    1
    40    20    44    1
    41    20    45    1
    42    20    46    1
    43    21    26    1
    44    21    22    2
    45    22    23    1
    46    23    24    2
    47    23    47    1
    48    24    25    1
    49    24    26    1
    50    25    48    1
    51    25    49    1
    52    25    50    1
@<TRIPOS>SUBSTRUCTURE
     1 ZINC001085711660        1 TEMP              0 ****  ****    0 ROOT


##########                                Name:    ZINC000328606936
##########                DOCK_Rotatable_Bonds:                   6
##########                         Heavy_Atoms:                  23
##########                    Molecular_Weight:             338.428
##########                DOCK_Rotatable_Bonds:                   6
##########                       Formal_Charge:           0.0100001
##########                     HBond_Acceptors:                   7
##########                        HBond_Donors:                   2
##########                         Heavy_Atoms:                  23
##########                          Grid_Score:          -30.021400
##########                     Grid_vdw_energy:          -25.155254
##########                      Grid_es_energy:           -4.866147
##########           Internal_energy_repulsive:           13.668149

@<TRIPOS>MOLECULE
ZINC000328606936
 45 47 1 0 0
SMALL
USER_CHARGES


@<TRIPOS>ATOM
      1 C1         -0.2546   -0.8577   46.3118 C.3     1  <0>        -0.0500
      2 N2         -1.2664    0.1908   46.4982 N.4     1  <0>        -0.3500
      3 H3         -2.1866   -0.2226   46.4799 H       1  <0>         0.4200
      4 C4         -1.1521    1.1791   45.4174 C.3     1  <0>        -0.0900
      5 C5         -1.4096    0.5074   44.0931 C.2     1  <0>         0.4900
      6 O6         -0.4834    0.0247   43.4642 O.co2   1  <0>        -0.6700
      7 O7         -2.5441    0.4465   43.6509 O.co2   1  <0>        -0.6400
      8 C8         -1.0527    0.8531   47.7919 C.3     1  <0>         0.0100
      9 H9         -1.0175    0.1151   48.5933 H       1  <0>         0.1600
     10 C10        -2.1717    1.8826   48.0590 C.3     1  <0>         0.1000
     11 N11        -1.4878    3.0126   48.7299 N.am    1  <0>        -0.6200
     12 C12        -1.9385    3.7593   49.7575 C.2     1  <0>         0.6200
     13 O13        -1.2520    4.6607   50.2017 O.2     1  <0>        -0.5100
     14 C14        -3.2554    3.4855   50.3401 C.2     1  <0>        -0.2800
     15 C15        -4.4354    3.4903   49.6617 C.2     1  <0>        -0.0300
     16 C16        -5.5378    3.1997   50.4443 C.2     1  <0>        -0.1200
     17 C17        -5.2419    2.9635   51.7426 C.2     1  <0>        -0.1900
     18 C18        -6.2688    2.6225   52.8059 C.3     1  <0>        -0.0500
     19 C19        -7.6592    2.9945   52.2846 C.3     1  <0>        -0.1200
     20 C20        -7.8442    2.3958   50.8872 C.3     1  <0>        -0.1200
     21 C21        -6.9577    3.1505   49.8948 C.3     1  <0>        -0.0600
     22 S22        -3.5625    3.0915   52.0236 S.3     1  <0>         0.2000
     23 C23        -0.1961    3.1357   48.0151 C.3     1  <0>         0.0600
     24 C24         0.2514    1.6770   47.7638 C.3     1  <0>         0.0800
     25 H25         0.7329    1.5909   46.7897 H       1  <0>         0.1000
     26 O26         1.1401    1.2451   48.7962 O.3     1  <0>        -0.5400
     27 H27         0.7395   -0.4111   46.3315 H       1  <0>         0.1100
     28 H28        -0.3394   -1.5911   47.1138 H       1  <0>         0.1100
     29 H29        -0.4132   -1.3491   45.3519 H       1  <0>         0.1600
     30 H30        -1.8842    1.9719   45.5710 H       1  <0>         0.1200
     31 H31        -0.1490    1.6055   45.4194 H       1  <0>         0.1300
     32 H32        -2.6177    2.2115   47.1204 H       1  <0>         0.1000
     33 H33        -2.9322    1.4563   48.7132 H       1  <0>         0.1200
     34 H34        -4.5047    3.7028   48.6051 H       1  <0>         0.1500
     35 H35        -6.2324    1.5543   53.0201 H       1  <0>         0.0900
     36 H36        -6.0559    3.1868   53.7139 H       1  <0>         0.0800
     37 H37        -8.4194    2.5953   52.9560 H       1  <0>         0.0700
     38 H38        -7.7507    4.0793   52.2316 H       1  <0>         0.0700
     39 H39        -7.5612    1.3433   50.9017 H       1  <0>         0.0700
     40 H40        -8.8878    2.4888   50.5866 H       1  <0>         0.0700
     41 H41        -7.3355    4.1647   49.7654 H       1  <0>         0.0800
     42 H42        -6.9598    2.6325   48.9358 H       1  <0>         0.0800
     43 H43        -0.3334    3.6602   47.0696 H       1  <0>         0.1000
     44 H44         0.5341    3.6547   48.6361 H       1  <0>         0.1000
     45 H45         1.3612    0.3045   48.7568 H       1  <0>         0.4000
@<TRIPOS>BOND
     1     1     2    1
     2     1    27    1
     3     1    28    1
     4     1    29    1
     5     2     3    1
     6     2     4    1
     7     2     8    1
     8     4     5    1
     9     4    30    1
    10     4    31    1
    11     5     6   ar
    12     5     7   ar
    13     8     9    1
    14     8    24    1
    15     8    10    1
    16    10    11    1
    17    10    32    1
    18    10    33    1
    19    11    12   am
    20    11    23    1
    21    12    13    2
    22    12    14    1
    23    14    22    1
    24    14    15    2
    25    15    16    1
    26    15    34    1
    27    16    21    1
    28    16    17    2
    29    17    18    1
    30    17    22    1
    31    18    19    1
    32    18    35    1
    33    18    36    1
    34    19    20    1
    35    19    37    1
    36    19    38    1
    37    20    21    1
    38    20    39    1
    39    20    40    1
    40    21    41    1
    41    21    42    1
    42    23    24    1
    43    23    43    1
    44    23    44    1
    45    24    25    1
    46    24    26    1
    47    26    45    1
@<TRIPOS>SUBSTRUCTURE
     1 <0>         1 TEMP              0 ****  ****    0 ROOT


##########                                Name:    ZINC000355549087
##########                DOCK_Rotatable_Bonds:                   9
##########                         Heavy_Atoms:                  23
##########                    Molecular_Weight:             336.415
##########                DOCK_Rotatable_Bonds:                   9
##########                       Formal_Charge:        -9.53674e-07
##########                     HBond_Acceptors:                   8
##########                        HBond_Donors:                   4
##########                         Heavy_Atoms:                  23
##########                          Grid_Score:          -30.012562
##########                     Grid_vdw_energy:          -25.251263
##########                      Grid_es_energy:           -4.761300
##########           Internal_energy_repulsive:           10.444749

@<TRIPOS>MOLECULE
ZINC000355549087
 43 44 1 0 0
SMALL
USER_CHARGES


@<TRIPOS>ATOM
      1 C1        -11.4679    0.2540   52.2016 C.3     1  <0>        -0.1500
      2 C2        -10.5538    0.1654   53.4252 C.3     1  <0>        -0.1200
      3 C3         -9.1308    0.5637   53.0285 C.3     1  <0>        -0.1000
      4 H4         -8.8661    0.0782   52.0891 H       1  <0>         0.0800
      5 C5         -8.1547    0.1251   54.1220 C.3     1  <0>        -0.1500
      6 C6         -9.0554    2.0822   52.8567 C.3     1  <0>         0.0900
      7 H7         -9.8532    2.4126   52.1916 H       1  <0>         0.1000
      8 O8         -9.2044    2.7136   54.1299 O.3     1  <0>        -0.3500
      9 C9         -9.4231    4.1239   54.0572 C.3     1  <0>         0.0200
     10 C10        -7.7209    2.4550   52.2641 C.2     1  <0>         0.5100
     11 O11        -6.8070    2.7869   52.9891 O.2     1  <0>        -0.4800
     12 N12        -7.5429    2.4197   50.9286 N.am    1  <0>        -0.6200
     13 C13        -6.3118    2.7619   50.3825 C.2     1  <0>         0.2400
     14 N14        -5.4460    1.9156   49.9237 N.2     1  <0>        -0.5000
     15 C15        -4.3182    2.4154   49.4357 C.2     1  <0>         0.1700
     16 C16        -3.2351    1.5668   48.8763 C.2     1  <0>        -0.1100
     17 C17        -2.4688    0.6744   49.5696 C.2     1  <0>         0.0600
     18 N18        -1.5945    0.0981   48.7089 N.pl3   1  <0>        -0.5400
     19 C19        -1.7976    0.6219   47.4523 C.2     1  <0>        -0.0600
     20 C20        -1.0566    0.2626   46.2381 C.2     1  <0>         0.5900
     21 N21         0.1990   -0.2180   46.3322 N.am    1  <0>        -0.8600
     22 O22        -1.5758    0.3987   45.1458 O.2     1  <0>        -0.5300
     23 C23        -2.8149    1.5314   47.5334 C.2     1  <0>        -0.0600
     24 C24        -4.2405    3.7572   49.4913 C.2     1  <0>        -0.3200
     25 S25        -5.7294    4.3599   50.2145 S.3     1  <0>         0.2500
     26 H26       -12.4817   -0.0297   52.4842 H       1  <0>         0.0600
     27 H27       -11.4690    1.2757   51.8220 H       1  <0>         0.0600
     28 H28       -11.1044   -0.4210   51.4267 H       1  <0>         0.0600
     29 H29       -10.9173    0.8404   54.2000 H       1  <0>         0.0600
     30 H30       -10.5527   -0.8564   53.8047 H       1  <0>         0.0700
     31 H31        -8.4194    0.6107   55.0614 H       1  <0>         0.0700
     32 H32        -8.2084   -0.9567   54.2444 H       1  <0>         0.0600
     33 H33        -7.1410    0.4088   53.8393 H       1  <0>         0.0500
     34 H34        -9.4267    4.5433   55.0634 H       1  <0>         0.0900
     35 H35        -8.6264    4.5855   53.4740 H       1  <0>         0.0500
     36 H36       -10.3831    4.3185   53.5790 H       1  <0>         0.0500
     37 H37        -8.2742    2.1554   50.3487 H       1  <0>         0.4200
     38 H38        -2.5463    0.4631   50.6260 H       1  <0>         0.1800
     39 H39        -0.9337   -0.5731   48.9406 H       1  <0>         0.4200
     40 H40         0.6884   -0.4566   45.5294 H       1  <0>         0.4000
     41 H41         0.6132   -0.3253   47.2027 H       1  <0>         0.4100
     42 H42        -3.2168    2.1178   46.7203 H       1  <0>         0.1500
     43 H43        -3.4121    4.3596   49.1492 H       1  <0>         0.1800
@<TRIPOS>BOND
     1     1     2    1
     2     1    26    1
     3     1    27    1
     4     1    28    1
     5     2     3    1
     6     2    29    1
     7     2    30    1
     8     3     4    1
     9     3     5    1
    10     3     6    1
    11     5    31    1
    12     5    32    1
    13     5    33    1
    14     6     7    1
    15     6     8    1
    16     6    10    1
    17     8     9    1
    18     9    34    1
    19     9    35    1
    20     9    36    1
    21    10    11    2
    22    10    12   am
    23    12    13    1
    24    12    37    1
    25    13    25    1
    26    13    14    2
    27    14    15    1
    28    15    16    1
    29    15    24    2
    30    16    23    1
    31    16    17    2
    32    17    18    1
    33    17    38    1
    34    18    19    1
    35    18    39    1
    36    19    20    1
    37    19    23    2
    38    20    21   am
    39    20    22    2
    40    21    40    1
    41    21    41    1
    42    23    42    1
    43    24    25    1
    44    24    43    1
@<TRIPOS>SUBSTRUCTURE
     1 <0>         1 TEMP              0 ****  ****    0 ROOT


##########                                Name:    ZINC000632456679
##########                DOCK_Rotatable_Bonds:                   6
##########                         Heavy_Atoms:                  24
##########                    Molecular_Weight:              374.82
##########                DOCK_Rotatable_Bonds:                   6
##########                       Formal_Charge:          -0.0299999
##########                     HBond_Acceptors:                   9
##########                        HBond_Donors:                   1
##########                         Heavy_Atoms:                  24
##########                          Grid_Score:          -30.009844
##########                     Grid_vdw_energy:          -28.129425
##########                      Grid_es_energy:           -1.880418
##########           Internal_energy_repulsive:           40.422150

@<TRIPOS>MOLECULE
ZINC000632456679
 40 41 1 0 0
SMALL
USER_CHARGES


@<TRIPOS>ATOM
      1 C1         -1.7157    2.9786   50.7756 C.3     1  ZINC000632456679   -0.1600
      2 C2         -2.9777    2.4430   50.0962 C.3     1  ZINC000632456679    0.1900
      3 C3         -3.5437    3.5104   49.1575 C.3     1  ZINC000632456679   -0.2000
      4 C4         -2.6305    1.1887   49.2919 C.3     1  ZINC000632456679   -0.6300
      5 S5         -2.0104    1.6713   47.6569 S.o2    1  ZINC000632456679    2.4100
      6 C6         -1.3666    0.0990   47.0211 C.3     1  ZINC000632456679   -0.6600
      7 O7         -3.1133    2.0671   46.8530 O.2     1  ZINC000632456679   -0.9300
      8 O8         -0.9223    2.5683   47.8320 O.2     1  ZINC000632456679   -0.9300
      9 N9         -3.9763    2.1091   51.1147 N.am    1  ZINC000632456679   -0.7200
     10 C10        -5.1563    1.5695   50.7502 C.2     1  ZINC000632456679    0.6200
     11 O11        -5.3925    1.3612   49.5759 O.2     1  ZINC000632456679   -0.5000
     12 C12        -6.1612    1.2317   51.7760 C.2     1  ZINC000632456679   -0.0900
     13 C13        -6.0164    1.3370   53.1304 C.2     1  ZINC000632456679   -0.1300
     14 C14        -7.2655    0.8884   53.6410 C.2     1  ZINC000632456679    0.0400
     15 C15        -7.6616    0.7946   55.0681 C.ar    1  ZINC000632456679   -0.0500
     16 C16        -7.1525    1.7005   55.9960 C.ar    1  ZINC000632456679   -0.0600
     17 C17        -7.5237    1.6094   57.3223 C.ar    1  ZINC000632456679   -0.1100
     18 C18        -8.3995    0.6208   57.7331 C.ar    1  ZINC000632456679   -0.0700
     19 C19        -8.9098   -0.2830   56.8180 C.ar    1  ZINC000632456679   -0.0800
     20 Cl20      -10.0084   -1.5208   57.3420 Cl      1  ZINC000632456679   -0.0400
     21 C21        -8.5497   -0.1976   55.4847 C.ar    1  ZINC000632456679    0.1400
     22 F22        -9.0479   -1.0796   54.5906 F       1  ZINC000632456679   -0.1100
     23 N23        -7.9968    0.5753   52.6008 N.2     1  ZINC000632456679   -0.3200
     24 O24        -7.4059    0.7638   51.5634 O.3     1  ZINC000632456679    0.1400
     25 H25        -1.9630    3.8723   51.3486 H       1  ZINC000632456679    0.0900
     26 H26        -1.3125    2.2182   51.4443 H       1  ZINC000632456679    0.0600
     27 H27        -0.9726    3.2270   50.0178 H       1  ZINC000632456679    0.0700
     28 H28        -2.8007    3.7587   48.3997 H       1  ZINC000632456679    0.0800
     29 H29        -4.4427    3.1287   48.6734 H       1  ZINC000632456679    0.0800
     30 H30        -3.7910    4.4040   49.7305 H       1  ZINC000632456679    0.0900
     31 H31        -1.8636    0.6203   49.8180 H       1  ZINC000632456679    0.1600
     32 H32        -3.5226    0.5734   49.1749 H       1  ZINC000632456679    0.1400
     33 H33        -2.1742   -0.6316   46.9736 H       1  ZINC000632456679    0.1300
     34 H34        -0.9556    0.2516   46.0231 H       1  ZINC000632456679    0.1300
     35 H35        -0.5833   -0.2677   47.6844 H       1  ZINC000632456679    0.1300
     36 H36        -3.7883    2.2765   52.0515 H       1  ZINC000632456679    0.4200
     37 H37        -5.1546    1.6801   53.6837 H       1  ZINC000632456679    0.1900
     38 H38        -6.4681    2.4729   55.6780 H       1  ZINC000632456679    0.1500
     39 H39        -7.1289    2.3119   58.0413 H       1  ZINC000632456679    0.1500
     40 H40        -8.6858    0.5539   58.7723 H       1  ZINC000632456679    0.1500
@<TRIPOS>BOND
     1     1     2    1
     2     1    25    1
     3     1    26    1
     4     1    27    1
     5     2     3    1
     6     2     4    1
     7     2     9    1
     8     3    28    1
     9     3    29    1
    10     3    30    1
    11     4     5    1
    12     4    31    1
    13     4    32    1
    14     5     6    1
    15     5     7    2
    16     5     8    2
    17     6    33    1
    18     6    34    1
    19     6    35    1
    20     9    10   am
    21     9    36    1
    22    10    11    2
    23    10    12    1
    24    12    24    1
    25    12    13    2
    26    13    14    1
    27    13    37    1
    28    14    15    1
    29    14    23    2
    30    15    21   ar
    31    15    16   ar
    32    16    17   ar
    33    16    38    1
    34    17    18   ar
    35    17    39    1
    36    18    19   ar
    37    18    40    1
    38    19    20    1
    39    19    21   ar
    40    21    22    1
    41    23    24    1
@<TRIPOS>SUBSTRUCTURE
     1 ZINC000632456679        1 TEMP              0 ****  ****    0 ROOT


##########                                Name:    ZINC000995593866
##########                DOCK_Rotatable_Bonds:                   7
##########                         Heavy_Atoms:                  24
##########                    Molecular_Weight:             342.389
##########                DOCK_Rotatable_Bonds:                   7
##########                       Formal_Charge:                0.03
##########                     HBond_Acceptors:                   8
##########                        HBond_Donors:                   1
##########                         Heavy_Atoms:                  24
##########                          Grid_Score:          -30.007282
##########                     Grid_vdw_energy:          -28.564251
##########                      Grid_es_energy:           -1.443032
##########           Internal_energy_repulsive:           12.239658

@<TRIPOS>MOLECULE
ZINC000995593866
 48 50 1 0 0
SMALL
USER_CHARGES


@<TRIPOS>ATOM
      1 C1         -8.9883   -2.1557   60.1919 C.3     1  ZINC000995593866   -0.1400
      2 C2         -9.5572   -0.7357   60.1608 C.3     1  ZINC000995593866   -0.0800
      3 C3         -8.5964    0.2053   59.4311 C.3     1  ZINC000995593866   -0.1400
      4 C4        -10.9421   -0.7271   59.4783 C.3     1  ZINC000995593866    0.1200
      5 N5        -11.9099   -0.8240   60.5957 N.am    1  ZINC000995593866   -0.6300
      6 C6        -13.0535   -1.5360   60.6395 C.2     1  ZINC000995593866    0.5400
      7 O7        -13.7440   -1.5135   61.6363 O.2     1  ZINC000995593866   -0.5300
      8 C8        -13.4739   -2.3601   59.4500 C.3     1  ZINC000995593866   -0.1300
      9 C9        -14.9746   -2.6468   59.5330 C.3     1  ZINC000995593866   -0.1000
     10 C10       -15.8531   -1.4130   59.2664 C.3     1  ZINC000995593866   -0.1300
     11 C11       -16.7855   -2.3455   58.4753 C.3     1  ZINC000995593866   -0.1400
     12 C12       -15.5598   -3.2445   58.2426 C.3     1  ZINC000995593866   -0.1400
     13 C13       -11.3359    0.0394   61.6538 C.3     1  ZINC000995593866    0.1100
     14 C14        -9.8168   -0.2303   61.5952 C.3     1  ZINC000995593866    0.0800
     15 H15        -9.5391   -0.9936   62.3220 H       1  ZINC000995593866    0.0700
     16 N16        -9.0681    1.0085   61.8458 N.3     1  ZINC000995593866   -0.6800
     17 C17        -9.3792    1.5519   63.1747 C.3     1  ZINC000995593866    0.1500
     18 C18        -8.5361    0.8560   64.2119 C.2     1  ZINC000995593866    0.1900
     19 N19        -7.7098    1.4247   65.0565 N.2     1  ZINC000995593866   -0.4300
     20 C20        -7.1846    0.4206   65.7810 C.2     1  ZINC000995593866    0.0900
     21 C21        -6.1745    0.5553   66.8912 C.3     1  ZINC000995593866    0.3800
     22 F22        -6.3422    1.7902   67.5268 F       1  ZINC000995593866   -0.1800
     23 F23        -6.3606   -0.4755   67.8186 F       1  ZINC000995593866   -0.1700
     24 N24        -7.7086   -0.6869   65.3481 N.2     1  ZINC000995593866   -0.3400
     25 O25        -8.4920   -0.4582   64.4507 O.3     1  ZINC000995593866    0.1000
     26 H26        -9.7000   -2.8216   60.6801 H       1  ZINC000995593866    0.0600
     27 H27        -8.8104   -2.4982   59.1726 H       1  ZINC000995593866    0.0600
     28 H28        -8.0493   -2.1588   60.7454 H       1  ZINC000995593866    0.0600
     29 H29        -8.4434   -0.1503   58.4121 H       1  ZINC000995593866    0.0700
     30 H30        -9.0201    1.2092   59.4059 H       1  ZINC000995593866    0.0700
     31 H31        -7.6410    0.2271   59.9555 H       1  ZINC000995593866    0.0600
     32 H32       -11.0887    0.2022   58.9279 H       1  ZINC000995593866    0.0800
     33 H33       -11.0430   -1.5843   58.8127 H       1  ZINC000995593866    0.0900
     34 H34       -13.2592   -1.8108   58.5333 H       1  ZINC000995593866    0.0900
     35 H35       -12.9239   -3.3011   59.4471 H       1  ZINC000995593866    0.0900
     36 H36       -15.2515   -3.1954   60.4331 H       1  ZINC000995593866    0.1000
     37 H37       -16.3095   -0.9996   60.1658 H       1  ZINC000995593866    0.0700
     38 H38       -15.3675   -0.6560   58.6506 H       1  ZINC000995593866    0.0800
     39 H39       -17.5587   -2.8110   59.0865 H       1  ZINC000995593866    0.0800
     40 H40       -17.1784   -1.8981   57.5623 H       1  ZINC000995593866    0.0700
     41 H41       -14.9941   -2.9883   57.3469 H       1  ZINC000995593866    0.0800
     42 H42       -15.7795   -4.3097   58.3154 H       1  ZINC000995593866    0.0700
     43 H43       -11.5441    1.0883   61.4431 H       1  ZINC000995593866    0.0900
     44 H44       -11.7340   -0.2396   62.6295 H       1  ZINC000995593866    0.0800
     45 H45        -8.0760    0.8593   61.7393 H       1  ZINC000995593866    0.3600
     46 H46        -9.1649    2.6205   63.1896 H       1  ZINC000995593866    0.1200
     47 H47       -10.4342    1.3898   63.3956 H       1  ZINC000995593866    0.0800
     48 H48        -5.1684    0.4937   66.4765 H       1  ZINC000995593866    0.1500
@<TRIPOS>BOND
     1     1     2    1
     2     1    26    1
     3     1    27    1
     4     1    28    1
     5     2    14    1
     6     2     3    1
     7     2     4    1
     8     3    29    1
     9     3    30    1
    10     3    31    1
    11     4     5    1
    12     4    32    1
    13     4    33    1
    14     5     6   am
    15     5    13    1
    16     6     7    2
    17     6     8    1
    18     8     9    1
    19     8    34    1
    20     8    35    1
    21     9    12    1
    22     9    10    1
    23     9    36    1
    24    10    11    1
    25    10    37    1
    26    10    38    1
    27    11    12    1
    28    11    39    1
    29    11    40    1
    30    12    41    1
    31    12    42    1
    32    13    14    1
    33    13    43    1
    34    13    44    1
    35    14    15    1
    36    14    16    1
    37    16    17    1
    38    16    45    1
    39    17    18    1
    40    17    46    1
    41    17    47    1
    42    18    25    1
    43    18    19    2
    44    19    20    1
    45    20    21    1
    46    20    24    2
    47    21    22    1
    48    21    23    1
    49    21    48    1
    50    24    25    1
@<TRIPOS>SUBSTRUCTURE
     1 ZINC000995593866        1 TEMP              0 ****  ****    0 ROOT


##########                                Name:    ZINC000301324012
##########                DOCK_Rotatable_Bonds:                   7
##########                         Heavy_Atoms:                  28
##########                    Molecular_Weight:               415.9
##########                DOCK_Rotatable_Bonds:                   7
##########                       Formal_Charge:          -0.0100002
##########                     HBond_Acceptors:                   8
##########                        HBond_Donors:                   2
##########                         Heavy_Atoms:                  28
##########                          Grid_Score:          -29.989332
##########                     Grid_vdw_energy:          -31.433016
##########                      Grid_es_energy:            1.443684
##########           Internal_energy_repulsive:           12.108335

@<TRIPOS>MOLECULE
ZINC000301324012
 46 48 1 0 0
SMALL
USER_CHARGES


@<TRIPOS>ATOM
      1 C1         -8.1609    2.2263   59.5839 C.3     1  ZINC000301324012   -0.1600
      2 C2         -7.7046    1.2354   58.5110 C.3     1  ZINC000301324012    0.2000
      3 H3         -6.8900    0.6259   58.9022 H       1  ZINC000301324012    0.1100
      4 N4         -8.8259    0.3699   58.1370 N.am    1  ZINC000301324012   -0.7100
      5 C5         -9.0237   -0.7948   58.7856 C.2     1  ZINC000301324012    0.5500
      6 O6         -8.2727   -1.1265   59.6820 O.2     1  ZINC000301324012   -0.5300
      7 C7        -10.1543   -1.6690   58.4070 C.ar    1  ZINC000301324012   -0.0700
      8 C8        -10.1649   -3.0093   58.7961 C.ar    1  ZINC000301324012   -0.1100
      9 C9        -11.2231   -3.8195   58.4400 C.ar    1  ZINC000301324012   -0.0200
     10 C10       -12.2723   -3.3062   57.6983 C.ar    1  ZINC000301324012   -0.6600
     11 S11       -13.6199   -4.3480   57.2473 S.o2    1  ZINC000301324012    2.6900
     12 O12       -14.1614   -3.8076   56.0497 O.2     1  ZINC000301324012   -0.9400
     13 O13       -13.1471   -5.6838   57.3529 O.2     1  ZINC000301324012   -0.9400
     14 N14       -14.7864   -4.1715   58.4093 N.am    1  ZINC000301324012   -1.0500
     15 C15       -15.3515   -2.9156   58.6469 C.ar    1  ZINC000301324012    0.1600
     16 C16       -16.1632   -2.3250   57.6876 C.ar    1  ZINC000301324012   -0.1600
     17 C17       -16.7205   -1.0834   57.9255 C.ar    1  ZINC000301324012   -0.0800
     18 C18       -16.4707   -0.4282   59.1171 C.ar    1  ZINC000301324012   -0.1200
     19 C19       -15.6627   -1.0130   60.0755 C.ar    1  ZINC000301324012   -0.0900
     20 C20       -15.1071   -2.2572   59.8467 C.ar    1  ZINC000301324012   -0.0600
     21 Cl21      -14.0931   -2.9908   61.0498 Cl      1  ZINC000301324012   -0.0600
     22 C22       -12.2683   -1.9782   57.3098 C.ar    1  ZINC000301324012   -0.0200
     23 C23       -11.2187   -1.1560   57.6638 C.ar    1  ZINC000301324012   -0.0800
     24 C24        -7.2280    1.9924   57.2983 C.ar    1  ZINC000301324012    0.1200
     25 C25        -7.3609    1.4270   56.0445 C.ar    1  ZINC000301324012   -0.1600
     26 C26        -6.9195    2.1320   54.9350 C.ar    1  ZINC000301324012   -0.0700
     27 C27        -6.3587    3.3848   55.1296 C.ar    1  ZINC000301324012   -0.1700
     28 C28        -6.2588    3.8859   56.4139 C.ar    1  ZINC000301324012    0.1100
     29 N29        -6.6938    3.1892   57.4454 N.ar    1  ZINC000301324012   -0.4900
     30 H30        -7.3266    2.8701   59.8622 H       1  ZINC000301324012    0.0700
     31 H31        -8.9755    2.8357   59.1927 H       1  ZINC000301324012    0.0600
     32 H32        -8.5056    1.6787   60.4611 H       1  ZINC000301324012    0.0700
     33 H33        -9.4259    0.6352   57.4225 H       1  ZINC000301324012    0.4100
     34 H34        -9.3461   -3.4114   59.3744 H       1  ZINC000301324012    0.1400
     35 H35       -11.2325   -4.8569   58.7404 H       1  ZINC000301324012    0.1500
     36 H36       -15.0773   -4.9397   58.9250 H       1  ZINC000301324012    0.4300
     37 H37       -16.3585   -2.8356   56.7562 H       1  ZINC000301324012    0.1700
     38 H38       -17.3518   -0.6238   57.1795 H       1  ZINC000301324012    0.1400
     39 H39       -16.9071    0.5426   59.2999 H       1  ZINC000301324012    0.1400
     40 H40       -15.4696   -0.4985   61.0051 H       1  ZINC000301324012    0.1400
     41 H41       -13.0905   -1.5836   56.7313 H       1  ZINC000301324012    0.1500
     42 H42       -11.2169   -0.1195   57.3603 H       1  ZINC000301324012    0.1500
     43 H43        -7.8025    0.4480   55.9301 H       1  ZINC000301324012    0.1400
     44 H44        -7.0102    1.7149   53.9429 H       1  ZINC000301324012    0.1400
     45 H45        -6.0040    3.9618   54.2883 H       1  ZINC000301324012    0.1400
     46 H46        -5.8228    4.8609   56.5740 H       1  ZINC000301324012    0.1600
@<TRIPOS>BOND
     1     1     2    1
     2     1    30    1
     3     1    31    1
     4     1    32    1
     5     2     3    1
     6     2     4    1
     7     2    24    1
     8     4     5   am
     9     4    33    1
    10     5     6    2
    11     5     7    1
    12     7    23   ar
    13     7     8   ar
    14     8     9   ar
    15     8    34    1
    16     9    10   ar
    17     9    35    1
    18    10    11    1
    19    10    22   ar
    20    11    12    2
    21    11    13    2
    22    11    14   am
    23    14    15    1
    24    14    36    1
    25    15    20   ar
    26    15    16   ar
    27    16    17   ar
    28    16    37    1
    29    17    18   ar
    30    17    38    1
    31    18    19   ar
    32    18    39    1
    33    19    20   ar
    34    19    40    1
    35    20    21    1
    36    22    23   ar
    37    22    41    1
    38    23    42    1
    39    24    29   ar
    40    24    25   ar
    41    25    26   ar
    42    25    43    1
    43    26    27   ar
    44    26    44    1
    45    27    28   ar
    46    27    45    1
    47    28    29   ar
    48    28    46    1
@<TRIPOS>SUBSTRUCTURE
     1 ZINC000301324012        1 TEMP              0 ****  ****    0 ROOT


##########                                Name:    ZINC001002468398
##########                DOCK_Rotatable_Bonds:                   7
##########                         Heavy_Atoms:                  24
##########                    Molecular_Weight:             341.358
##########                DOCK_Rotatable_Bonds:                   7
##########                       Formal_Charge:           0.0100001
##########                     HBond_Acceptors:                   8
##########                        HBond_Donors:                   0
##########                         Heavy_Atoms:                  24
##########                          Grid_Score:          -29.975863
##########                     Grid_vdw_energy:          -29.601578
##########                      Grid_es_energy:           -0.374284
##########           Internal_energy_repulsive:           14.300481

@<TRIPOS>MOLECULE
ZINC001002468398
 45 47 1 0 0
SMALL
USER_CHARGES


@<TRIPOS>ATOM
      1 C1         -7.1511   -0.3734   51.9788 C.3     1  ZINC001002468398   -0.1400
      2 C2         -6.4138    0.9180   52.3388 C.3     1  ZINC001002468398   -0.0500
      3 C3         -7.2119    2.1026   51.8583 C.2     1  ZINC001002468398    0.0500
      4 C4         -6.9319    2.8842   50.7800 C.2     1  ZINC001002468398   -0.0800
      5 C5         -5.7898    2.7316   49.8606 C.2     1  ZINC001002468398    0.6000
      6 O6         -5.8428    1.9226   48.9541 O.2     1  ZINC001002468398   -0.5300
      7 N7         -4.6867    3.4886   50.0246 N.am    1  ZINC001002468398   -0.6000
      8 C8         -4.6229    4.4630   51.1166 C.3     1  ZINC001002468398    0.0900
      9 C9         -3.5518    3.3369   49.1109 C.3     1  ZINC001002468398    0.1000
     10 C10        -2.9246    1.9545   49.3018 C.3     1  ZINC001002468398    0.1300
     11 H11        -3.6954    1.1862   49.2405 H       1  ZINC001002468398    0.0800
     12 C12        -2.2197    1.8827   50.6728 C.3     1  ZINC001002468398   -0.1300
     13 C13        -0.9444    1.0544   50.3649 C.3     1  ZINC001002468398   -0.1300
     14 C14        -0.5972    1.5380   48.9348 C.3     1  ZINC001002468398    0.1000
     15 N15        -1.9037    1.7217   48.2698 N.am    1  ZINC001002468398   -0.6100
     16 C16        -2.1204    1.6838   46.9401 C.2     1  ZINC001002468398    0.5600
     17 O17        -3.2398    1.8487   46.5033 O.2     1  ZINC001002468398   -0.5100
     18 C18        -0.9720    1.4366   45.9961 C.3     1  ZINC001002468398   -0.2000
     19 H19        -0.1987    2.2047   45.9854 H       1  ZINC001002468398    0.1500
     20 C20        -1.2824    0.7282   44.6761 C.3     1  ZINC001002468398   -0.1500
     21 C21        -0.5307   -0.0130   45.7846 C.3     1  ZINC001002468398    0.2300
     22 F22         0.8343   -0.2512   45.5918 F       1  ZINC001002468398   -0.1500
     23 F23        -1.2246   -1.0078   46.4820 F       1  ZINC001002468398   -0.1400
     24 N24        -7.9051    3.8327   50.7098 N.2     1  ZINC001002468398   -0.4600
     25 C25        -8.7359    3.6436   51.6908 C.2     1  ZINC001002468398    0.1700
     26 O26        -8.3375    2.5843   52.4091 O.3     1  ZINC001002468398   -0.2000
     27 H27        -8.1309   -0.3777   52.4564 H       1  ZINC001002468398    0.0600
     28 H28        -7.2736   -0.4324   50.8973 H       1  ZINC001002468398    0.0600
     29 H29        -6.5738   -1.2303   52.3264 H       1  ZINC001002468398    0.0700
     30 H30        -6.2912    0.9770   53.4202 H       1  ZINC001002468398    0.1200
     31 H31        -5.4340    0.9223   51.8612 H       1  ZINC001002468398    0.0900
     32 H32        -4.6748    3.9416   52.0724 H       1  ZINC001002468398    0.0700
     33 H33        -3.6860    5.0167   51.0552 H       1  ZINC001002468398    0.0700
     34 H34        -5.4603    5.1559   51.0348 H       1  ZINC001002468398    0.0700
     35 H35        -3.8971    3.4403   48.0821 H       1  ZINC001002468398    0.0900
     36 H36        -2.8087    4.1055   49.3237 H       1  ZINC001002468398    0.0900
     37 H37        -1.9562    2.8804   51.0236 H       1  ZINC001002468398    0.1000
     38 H38        -2.8463    1.3693   51.4021 H       1  ZINC001002468398    0.0800
     39 H39        -0.1437    1.2955   51.0640 H       1  ZINC001002468398    0.0900
     40 H40        -1.1606   -0.0139   50.3743 H       1  ZINC001002468398    0.0800
     41 H41        -0.0545    2.4825   48.9750 H       1  ZINC001002468398    0.0800
     42 H42        -0.0094    0.7838   48.4115 H       1  ZINC001002468398    0.0800
     43 H43        -2.3173    0.4408   44.4903 H       1  ZINC001002468398    0.1300
     44 H44        -0.7130    1.0299   43.7969 H       1  ZINC001002468398    0.1400
     45 H45        -9.6116    4.2426   51.8928 H       1  ZINC001002468398    0.2600
@<TRIPOS>BOND
     1     1     2    1
     2     1    27    1
     3     1    28    1
     4     1    29    1
     5     2     3    1
     6     2    30    1
     7     2    31    1
     8     3    26    1
     9     3     4    2
    10     4     5    1
    11     4    24    1
    12     5     6    2
    13     5     7   am
    14     7     8    1
    15     7     9    1
    16     8    32    1
    17     8    33    1
    18     8    34    1
    19     9    10    1
    20     9    35    1
    21     9    36    1
    22    10    11    1
    23    10    15    1
    24    10    12    1
    25    12    13    1
    26    12    37    1
    27    12    38    1
    28    13    14    1
    29    13    39    1
    30    13    40    1
    31    14    15    1
    32    14    41    1
    33    14    42    1
    34    15    16   am
    35    16    17    2
    36    16    18    1
    37    18    19    1
    38    18    21    1
    39    18    20    1
    40    20    21    1
    41    20    43    1
    42    20    44    1
    43    21    22    1
    44    21    23    1
    45    24    25    2
    46    25    26    1
    47    25    45    1
@<TRIPOS>SUBSTRUCTURE
     1 ZINC001002468398        1 TEMP              0 ****  ****    0 ROOT


##########                                Name:    ZINC000132775118
##########                DOCK_Rotatable_Bonds:                   5
##########                         Heavy_Atoms:                  27
##########                    Molecular_Weight:             376.499
##########                DOCK_Rotatable_Bonds:                   5
##########                       Formal_Charge:        -4.76837e-07
##########                     HBond_Acceptors:                   7
##########                        HBond_Donors:                   1
##########                         Heavy_Atoms:                  27
##########                          Grid_Score:          -29.962870
##########                     Grid_vdw_energy:          -29.916868
##########                      Grid_es_energy:           -0.046001
##########           Internal_energy_repulsive:           21.867796

@<TRIPOS>MOLECULE
ZINC000132775118
 59 62 1 0 0
SMALL
USER_CHARGES


@<TRIPOS>ATOM
      1 O1        -12.8479   -1.3029   54.5194 O.2     1  ZINC000132775118   -0.5200
      2 C2        -11.8531   -1.1318   55.1916 C.2     1  ZINC000132775118    0.5200
      3 C3        -11.6874   -1.8710   56.4943 C.3     1  ZINC000132775118    0.0300
      4 N4        -12.9128   -2.6260   56.7881 N.3     1  ZINC000132775118   -0.5100
      5 C5        -12.5974   -3.9974   57.2143 C.3     1  ZINC000132775118    0.0300
      6 C6        -13.8294   -4.6918   57.7188 C.2     1  ZINC000132775118    0.5300
      7 O7        -13.8038   -5.8986   57.8370 O.2     1  ZINC000132775118   -0.5500
      8 N8        -14.9554   -4.0429   58.0452 N.am    1  ZINC000132775118   -0.7200
      9 C9        -15.0943   -2.6039   57.8695 C.3     1  ZINC000132775118    0.1500
     10 H10       -15.6104   -2.4103   56.9291 H       1  ZINC000132775118    0.0800
     11 C11       -15.8892   -1.9724   59.0102 C.3     1  ZINC000132775118   -0.1300
     12 C12       -16.0513   -0.4747   58.7313 C.3     1  ZINC000132775118   -0.1200
     13 C13       -14.6778    0.1875   58.6194 C.3     1  ZINC000132775118   -0.1200
     14 C14       -13.8705   -0.4677   57.4943 C.3     1  ZINC000132775118   -0.1200
     15 C15       -13.7104   -1.9532   57.8197 C.3     1  ZINC000132775118    0.0700
     16 H16       -13.2081   -2.0609   58.7810 H       1  ZINC000132775118    0.0600
     17 N17       -10.8929   -0.2848   54.7705 N.am    1  ZINC000132775118   -0.6200
     18 C18        -9.6765   -0.0762   55.5678 C.3     1  ZINC000132775118    0.1100
     19 C19        -8.4548   -0.3254   54.6777 C.3     1  ZINC000132775118   -0.1200
     20 C20        -8.5484    0.5575   53.4312 C.3     1  ZINC000132775118   -0.1000
     21 C21        -7.3313    0.3400   52.5695 C.2     1  ZINC000132775118    0.5300
     22 O22        -6.7020   -0.6929   52.6584 O.2     1  ZINC000132775118   -0.5300
     23 N23        -6.9421    1.2935   51.7001 N.am    1  ZINC000132775118   -0.6200
     24 C24        -7.6061    2.5894   51.4959 C.3     1  ZINC000132775118    0.1000
     25 C25        -6.8276    3.3340   50.3908 C.3     1  ZINC000132775118   -0.1300
     26 C26        -6.1079    2.1841   49.6377 C.3     1  ZINC000132775118   -0.1300
     27 C27        -5.7766    1.2127   50.8010 C.3     1  ZINC000132775118    0.1000
     28 C28        -9.8058    0.1926   52.6388 C.3     1  ZINC000132775118   -0.1200
     29 C29       -11.0401    0.4430   53.5028 C.3     1  ZINC000132775118    0.1200
     30 H30       -10.8461   -2.5596   56.4169 H       1  ZINC000132775118    0.0700
     31 H31       -11.4998   -1.1567   57.2960 H       1  ZINC000132775118    0.1200
     32 H32       -12.1933   -4.5526   56.3678 H       1  ZINC000132775118    0.1300
     33 H33       -11.8527   -3.9640   58.0095 H       1  ZINC000132775118    0.0700
     34 H34       -15.7003   -4.5467   58.4090 H       1  ZINC000132775118    0.4000
     35 H35       -16.8716   -2.4404   59.0736 H       1  ZINC000132775118    0.0800
     36 H36       -15.3544   -2.1131   59.9495 H       1  ZINC000132775118    0.0700
     37 H37       -16.5962   -0.3374   57.7972 H       1  ZINC000132775118    0.0700
     38 H38       -16.6102   -0.0133   59.5455 H       1  ZINC000132775118    0.0700
     39 H39       -14.8041    1.2484   58.4035 H       1  ZINC000132775118    0.0700
     40 H40       -14.1432    0.0731   59.5625 H       1  ZINC000132775118    0.0600
     41 H41       -14.3975   -0.3459   56.5480 H       1  ZINC000132775118    0.0800
     42 H42       -12.8879   -0.0004   57.4300 H       1  ZINC000132775118    0.0700
     43 H43        -9.6547    0.9480   55.9400 H       1  ZINC000132775118    0.0800
     44 H44        -9.6656   -0.7723   56.4066 H       1  ZINC000132775118    0.0900
     45 H45        -7.5471   -0.0810   55.2293 H       1  ZINC000132775118    0.0800
     46 H46        -8.4293   -1.3736   54.3800 H       1  ZINC000132775118    0.0800
     47 H47        -8.5991    1.6043   53.7305 H       1  ZINC000132775118    0.0900
     48 H48        -8.6375    2.4318   51.1807 H       1  ZINC000132775118    0.0700
     49 H49        -7.5827    3.1675   52.4196 H       1  ZINC000132775118    0.0700
     50 H50        -7.5114    3.8617   49.7261 H       1  ZINC000132775118    0.0800
     51 H51        -6.1032    4.0223   50.8264 H       1  ZINC000132775118    0.0800
     52 H52        -6.7727    1.7166   48.9113 H       1  ZINC000132775118    0.0800
     53 H53        -5.1967    2.5413   49.1579 H       1  ZINC000132775118    0.0900
     54 H54        -4.8707    1.5325   51.3159 H       1  ZINC000132775118    0.0700
     55 H55        -5.6615    0.1960   50.4251 H       1  ZINC000132775118    0.0800
     56 H56        -9.8595    0.8056   51.7390 H       1  ZINC000132775118    0.0800
     57 H57        -9.7675   -0.8605   52.3602 H       1  ZINC000132775118    0.0800
     58 H58       -11.9296    0.0922   52.9796 H       1  ZINC000132775118    0.1000
     59 H59       -11.1315    1.5094   53.7088 H       1  ZINC000132775118    0.0700
@<TRIPOS>BOND
     1     1     2    2
     2     2     3    1
     3     2    17   am
     4     3     4    1
     5     3    30    1
     6     3    31    1
     7     4    15    1
     8     4     5    1
     9     5     6    1
    10     5    32    1
    11     5    33    1
    12     6     7    2
    13     6     8   am
    14     8     9    1
    15     8    34    1
    16     9    10    1
    17     9    15    1
    18     9    11    1
    19    11    12    1
    20    11    35    1
    21    11    36    1
    22    12    13    1
    23    12    37    1
    24    12    38    1
    25    13    14    1
    26    13    39    1
    27    13    40    1
    28    14    15    1
    29    14    41    1
    30    14    42    1
    31    15    16    1
    32    17    29    1
    33    17    18    1
    34    18    19    1
    35    18    43    1
    36    18    44    1
    37    19    20    1
    38    19    45    1
    39    19    46    1
    40    20    21    1
    41    20    28    1
    42    20    47    1
    43    21    22    2
    44    21    23   am
    45    23    27    1
    46    23    24    1
    47    24    25    1
    48    24    48    1
    49    24    49    1
    50    25    26    1
    51    25    50    1
    52    25    51    1
    53    26    27    1
    54    26    52    1
    55    26    53    1
    56    27    54    1
    57    27    55    1
    58    28    29    1
    59    28    56    1
    60    28    57    1
    61    29    58    1
    62    29    59    1
@<TRIPOS>SUBSTRUCTURE
     1 ZINC000132775118        1 TEMP              0 ****  ****    0 ROOT


##########                                Name:    ZINC001513543414
##########                DOCK_Rotatable_Bonds:                   6
##########                         Heavy_Atoms:                  26
##########                    Molecular_Weight:             364.488
##########                DOCK_Rotatable_Bonds:                   6
##########                       Formal_Charge:         -0.00999974
##########                     HBond_Acceptors:                   7
##########                        HBond_Donors:                   0
##########                         Heavy_Atoms:                  26
##########                          Grid_Score:          -29.957273
##########                     Grid_vdw_energy:          -30.012985
##########                      Grid_es_energy:            0.055711
##########           Internal_energy_repulsive:           19.970806

@<TRIPOS>MOLECULE
ZINC001513543414
 58 61 1 0 0
SMALL
USER_CHARGES


@<TRIPOS>ATOM
      1 C1         -1.3697   -0.3021   44.1288 C.3     1  ZINC001513543414   -0.1500
      2 C2         -1.4146    1.1497   44.6095 C.3     1  ZINC001513543414   -0.1200
      3 C3         -0.6506    1.2739   45.9292 C.3     1  ZINC001513543414    0.1100
      4 C4          0.7662    0.7210   45.7624 C.3     1  ZINC001513543414   -0.1500
      5 C5         -0.5893    2.7546   46.3617 C.3     1  ZINC001513543414   -0.1500
      6 C6         -0.7874    2.6575   47.8990 C.3     1  ZINC001513543414   -0.1500
      7 C7         -1.7554    1.4515   47.9952 C.3     1  ZINC001513543414    0.0700
      8 H8         -2.7818    1.7756   47.8233 H       1  ZINC001513543414    0.0800
      9 C9         -1.6336    0.7807   49.3650 C.3     1  ZINC001513543414    0.1100
     10 N10        -1.9282    1.7585   50.4155 N.pl3   1  ZINC001513543414   -0.4600
     11 C11        -1.0328    2.3698   51.2487 C.2     1  ZINC001513543414    0.1900
     12 C12         0.4600    2.1640   51.2614 C.3     1  ZINC001513543414    0.1800
     13 H13         0.8739    2.3400   50.2686 H       1  ZINC001513543414    0.1000
     14 C14         1.1241    3.1070   52.2961 C.3     1  ZINC001513543414   -0.1500
     15 C15         2.4293    2.3264   52.6112 C.3     1  ZINC001513543414   -0.1500
     16 C16         1.9664    0.8575   52.5041 C.3     1  ZINC001513543414    0.0500
     17 O17         0.7762    0.8349   51.7051 O.3     1  ZINC001513543414   -0.3500
     18 N18        -1.7096    3.1640   52.0291 N.2     1  ZINC001513543414   -0.2600
     19 N19        -2.9618    3.0965   51.7478 N.2     1  ZINC001513543414   -0.3100
     20 C20        -3.1523    2.2525   50.7613 C.2     1  ZINC001513543414    0.3400
     21 N21        -4.3678    1.9192   50.1853 N.3     1  ZINC001513543414   -0.4500
     22 C22        -5.0652    3.1233   49.6858 C.3     1  ZINC001513543414    0.0500
     23 C23        -6.5706    2.8236   49.8943 C.3     1  ZINC001513543414   -0.1500
     24 C24        -6.5529    2.0511   51.2395 C.3     1  ZINC001513543414    0.0700
     25 H25        -6.5241    2.7432   52.0811 H       1  ZINC001513543414    0.0800
     26 O26        -7.6845    1.1840   51.3392 O.3     1  ZINC001513543414   -0.3800
     27 C27        -7.7986    0.5199   52.5993 C.3     1  ZINC001513543414    0.0300
     28 C28        -5.2437    1.2384   51.1565 C.3     1  ZINC001513543414    0.0600
     29 O29        -1.3366    0.5505   46.9578 O.3     1  ZINC001513543414   -0.3600
     30 H30        -1.9140   -0.3905   43.1886 H       1  ZINC001513543414    0.0500
     31 H31        -0.3330   -0.6030   43.9780 H       1  ZINC001513543414    0.0500
     32 H32        -1.8301   -0.9471   44.8772 H       1  ZINC001513543414    0.0600
     33 H33        -0.9543    1.7947   43.8611 H       1  ZINC001513543414    0.0700
     34 H34        -2.4514    1.4506   44.7602 H       1  ZINC001513543414    0.0600
     35 H35         1.2921    1.2935   44.9985 H       1  ZINC001513543414    0.0700
     36 H36         1.3012    0.8007   46.7089 H       1  ZINC001513543414    0.0600
     37 H37         0.7148   -0.3253   45.4613 H       1  ZINC001513543414    0.0700
     38 H38         0.3813    3.1889   46.1223 H       1  ZINC001513543414    0.0900
     39 H39        -1.3955    3.3266   45.9021 H       1  ZINC001513543414    0.0800
     40 H40         0.1553    2.4459   48.4038 H       1  ZINC001513543414    0.0800
     41 H41        -1.2476    3.5632   48.2938 H       1  ZINC001513543414    0.0900
     42 H42        -2.3413   -0.0457   49.4291 H       1  ZINC001513543414    0.1000
     43 H43        -0.6199    0.4020   49.4952 H       1  ZINC001513543414    0.1100
     44 H44         1.3446    4.0797   51.8563 H       1  ZINC001513543414    0.0900
     45 H45         0.5044    3.2120   53.1865 H       1  ZINC001513543414    0.0900
     46 H46         3.2001    2.5451   51.8722 H       1  ZINC001513543414    0.0800
     47 H47         2.7813    2.5498   53.6183 H       1  ZINC001513543414    0.0900
     48 H48         2.7423    0.2593   52.0264 H       1  ZINC001513543414    0.0700
     49 H49         1.7534    0.4637   53.4979 H       1  ZINC001513543414    0.0700
     50 H50        -4.7694    3.9998   50.2623 H       1  ZINC001513543414    0.0600
     51 H51        -4.8514    3.2741   48.6276 H       1  ZINC001513543414    0.0900
     52 H52        -7.1441    3.7465   49.9816 H       1  ZINC001513543414    0.0800
     53 H53        -6.9594    2.1987   49.0903 H       1  ZINC001513543414    0.0900
     54 H54        -8.6818   -0.1189   52.5948 H       1  ZINC001513543414    0.0900
     55 H55        -6.9108   -0.0888   52.7709 H       1  ZINC001513543414    0.0400
     56 H56        -7.8901    1.2609   53.3935 H       1  ZINC001513543414    0.0400
     57 H57        -5.4573    0.2250   50.8164 H       1  ZINC001513543414    0.1000
     58 H58        -4.7622    1.2101   52.1340 H       1  ZINC001513543414    0.0900
@<TRIPOS>BOND
     1     1     2    1
     2     1    30    1
     3     1    31    1
     4     1    32    1
     5     2     3    1
     6     2    33    1
     7     2    34    1
     8     3    29    1
     9     3     4    1
    10     3     5    1
    11     4    35    1
    12     4    36    1
    13     4    37    1
    14     5     6    1
    15     5    38    1
    16     5    39    1
    17     6     7    1
    18     6    40    1
    19     6    41    1
    20     7     8    1
    21     7     9    1
    22     7    29    1
    23     9    10    1
    24     9    42    1
    25     9    43    1
    26    10    20    1
    27    10    11    1
    28    11    12    1
    29    11    18    2
    30    12    13    1
    31    12    17    1
    32    12    14    1
    33    14    15    1
    34    14    44    1
    35    14    45    1
    36    15    16    1
    37    15    46    1
    38    15    47    1
    39    16    17    1
    40    16    48    1
    41    16    49    1
    42    18    19    1
    43    19    20    2
    44    20    21    1
    45    21    28    1
    46    21    22    1
    47    22    23    1
    48    22    50    1
    49    22    51    1
    50    23    24    1
    51    23    52    1
    52    23    53    1
    53    24    25    1
    54    24    26    1
    55    24    28    1
    56    26    27    1
    57    27    54    1
    58    27    55    1
    59    27    56    1
    60    28    57    1
    61    28    58    1
@<TRIPOS>SUBSTRUCTURE
     1 ZINC001513543414        1 TEMP              0 ****  ****    0 ROOT


##########                                Name:    ZINC000864730443
##########                DOCK_Rotatable_Bonds:                  10
##########                         Heavy_Atoms:                  25
##########                    Molecular_Weight:             356.462
##########                DOCK_Rotatable_Bonds:                  10
##########                       Formal_Charge:           0.0299988
##########                     HBond_Acceptors:                   7
##########                        HBond_Donors:                   2
##########                         Heavy_Atoms:                  25
##########                          Grid_Score:          -29.952927
##########                     Grid_vdw_energy:          -30.376991
##########                      Grid_es_energy:            0.424064
##########           Internal_energy_repulsive:           19.411943

@<TRIPOS>MOLECULE
ZINC000864730443
 57 58 1 0 0
SMALL
USER_CHARGES


@<TRIPOS>ATOM
      1 C1         -9.4157    0.9873   60.5422 C.3     1  ZINC000864730443   -0.1800
      2 C2         -9.7652    0.3801   61.9024 C.3     1  ZINC000864730443    0.1400
      3 C3         -9.1181    1.2101   63.0129 C.3     1  ZINC000864730443   -0.1800
      4 C4        -11.2842    0.3795   62.0854 C.3     1  ZINC000864730443   -0.1400
      5 O5         -9.2695   -0.9832   61.9655 O.3     1  ZINC000864730443   -0.3600
      6 C6         -9.1646   -1.6501   60.8006 C.2     1  ZINC000864730443    0.6500
      7 O7         -8.1038   -1.6752   60.2085 O.2     1  ZINC000864730443   -0.5700
      8 N8        -10.2359   -2.2897   60.2914 N.am    1  ZINC000864730443   -0.7100
      9 C9        -10.1213   -3.0168   59.0248 C.3     1  ZINC000864730443    0.1500
     10 C10       -11.4694   -2.9970   58.3015 C.3     1  ZINC000864730443   -0.1300
     11 C11       -11.5062   -1.8403   57.3364 C.2     1  ZINC000864730443    0.5300
     12 O12       -12.2099   -0.8798   57.5676 O.2     1  ZINC000864730443   -0.5300
     13 N13       -10.7574   -1.8731   56.2163 N.am    1  ZINC000864730443   -0.7200
     14 C14       -10.7932   -0.7485   55.2780 C.3     1  ZINC000864730443    0.1200
     15 C15        -9.9935   -1.1054   54.0235 C.3     1  ZINC000864730443   -0.1300
     16 C16        -9.3908    0.1667   53.4239 C.3     1  ZINC000864730443    0.0800
     17 H17       -10.1623    0.9258   53.2950 H       1  ZINC000864730443    0.0800
     18 C18        -8.2548    0.7030   54.3311 C.3     1  ZINC000864730443   -0.1500
     19 C19        -7.4107    1.5050   53.3034 C.3     1  ZINC000864730443   -0.1600
     20 C20        -7.5757    0.6661   52.0179 C.3     1  ZINC000864730443    0.0500
     21 O21        -8.7627   -0.1244   52.1653 O.3     1  ZINC000864730443   -0.3800
     22 C22       -11.6591   -4.3103   57.5362 C.3     1  ZINC000864730443   -0.1000
     23 C23       -13.0435   -4.3112   56.8808 C.3     1  ZINC000864730443   -0.1600
     24 C24       -14.1105   -4.1083   57.9598 C.3     1  ZINC000864730443    0.0600
     25 O25       -13.8577   -2.8849   58.6537 O.3     1  ZINC000864730443   -0.3700
     26 C26       -12.5971   -2.8449   59.3257 C.3     1  ZINC000864730443    0.0800
     27 H27        -8.3335    0.9879   60.4118 H       1  ZINC000864730443    0.0900
     28 H28        -9.8767    0.3961   59.7510 H       1  ZINC000864730443    0.0600
     29 H29        -9.7878    2.0108   60.4948 H       1  ZINC000864730443    0.0700
     30 H30        -9.4903    2.2335   62.9654 H       1  ZINC000864730443    0.0700
     31 H31        -9.3672    0.7775   63.9819 H       1  ZINC000864730443    0.0600
     32 H32        -8.0359    1.2105   62.8825 H       1  ZINC000864730443    0.0900
     33 H33       -11.7453   -0.2118   61.2942 H       1  ZINC000864730443    0.0700
     34 H34       -11.5333   -0.0532   63.0544 H       1  ZINC000864730443    0.0700
     35 H35       -11.6563    1.4029   62.0379 H       1  ZINC000864730443    0.0800
     36 H36       -11.0831   -2.2686   60.7635 H       1  ZINC000864730443    0.4100
     37 H37        -9.3664   -2.5404   58.3993 H       1  ZINC000864730443    0.0900
     38 H38        -9.8305   -4.0484   59.2232 H       1  ZINC000864730443    0.0800
     39 H39       -10.1947   -2.6412   56.0314 H       1  ZINC000864730443    0.4000
     40 H40       -11.8267   -0.5381   55.0025 H       1  ZINC000864730443    0.0700
     41 H41       -10.3564    0.1320   55.7493 H       1  ZINC000864730443    0.0700
     42 H42        -9.1935   -1.7972   54.2872 H       1  ZINC000864730443    0.0800
     43 H43       -10.6531   -1.5741   53.2932 H       1  ZINC000864730443    0.0800
     44 H44        -8.6492    1.3554   55.1101 H       1  ZINC000864730443    0.0900
     45 H45        -7.6767   -0.1147   54.7614 H       1  ZINC000864730443    0.0800
     46 H46        -7.8158    2.5077   53.1669 H       1  ZINC000864730443    0.0800
     47 H47        -6.3650    1.5462   53.6082 H       1  ZINC000864730443    0.0800
     48 H48        -7.6772    1.3260   51.1563 H       1  ZINC000864730443    0.0700
     49 H49        -6.7109    0.0157   51.8873 H       1  ZINC000864730443    0.0700
     50 H50       -10.8915   -4.3983   56.7672 H       1  ZINC000864730443    0.0800
     51 H51       -11.5823   -5.1496   58.2275 H       1  ZINC000864730443    0.0800
     52 H52       -13.1026   -3.5017   56.1533 H       1  ZINC000864730443    0.0900
     53 H53       -13.2088   -5.2651   56.3799 H       1  ZINC000864730443    0.0800
     54 H54       -15.0949   -4.0653   57.4940 H       1  ZINC000864730443    0.1000
     55 H55       -14.0775   -4.9393   58.6644 H       1  ZINC000864730443    0.0500
     56 H56       -12.5444   -3.6595   60.0482 H       1  ZINC000864730443    0.0700
     57 H57       -12.4915   -1.8918   59.8438 H       1  ZINC000864730443    0.1000
@<TRIPOS>BOND
     1     1     2    1
     2     1    27    1
     3     1    28    1
     4     1    29    1
     5     2     3    1
     6     2     4    1
     7     2     5    1
     8     3    30    1
     9     3    31    1
    10     3    32    1
    11     4    33    1
    12     4    34    1
    13     4    35    1
    14     5     6    1
    15     6     7    2
    16     6     8   am
    17     8     9    1
    18     8    36    1
    19     9    10    1
    20     9    37    1
    21     9    38    1
    22    10    26    1
    23    10    11    1
    24    10    22    1
    25    11    12    2
    26    11    13   am
    27    13    14    1
    28    13    39    1
    29    14    15    1
    30    14    40    1
    31    14    41    1
    32    15    16    1
    33    15    42    1
    34    15    43    1
    35    16    17    1
    36    16    21    1
    37    16    18    1
    38    18    19    1
    39    18    44    1
    40    18    45    1
    41    19    20    1
    42    19    46    1
    43    19    47    1
    44    20    21    1
    45    20    48    1
    46    20    49    1
    47    22    23    1
    48    22    50    1
    49    22    51    1
    50    23    24    1
    51    23    52    1
    52    23    53    1
    53    24    25    1
    54    24    54    1
    55    24    55    1
    56    25    26    1
    57    26    56    1
    58    26    57    1
@<TRIPOS>SUBSTRUCTURE
     1 ZINC000864730443        1 TEMP              0 ****  ****    0 ROOT


##########                                Name:    ZINC000443933644
##########                DOCK_Rotatable_Bonds:                   8
##########                         Heavy_Atoms:                  27
##########                    Molecular_Weight:             402.438
##########                DOCK_Rotatable_Bonds:                   8
##########                       Formal_Charge:          0.00999922
##########                     HBond_Acceptors:                   9
##########                        HBond_Donors:                   2
##########                         Heavy_Atoms:                  27
##########                          Grid_Score:          -29.946611
##########                     Grid_vdw_energy:          -27.671829
##########                      Grid_es_energy:           -2.274783
##########           Internal_energy_repulsive:           43.056721

@<TRIPOS>MOLECULE
ZINC000443933644
 48 49 1 0 0
SMALL
USER_CHARGES


@<TRIPOS>ATOM
      1 C1        -15.8939   -1.4342   54.6903 C.3     1  ZINC000443933644   -0.1500
      2 C2        -14.7739   -1.9928   55.5703 C.3     1  ZINC000443933644   -0.1400
      3 C3        -14.8897   -1.4044   56.9779 C.3     1  ZINC000443933644   -0.1000
      4 H4        -15.8988   -1.5656   57.3572 H       1  ZINC000443933644    0.1000
      5 C5        -14.5971    0.0965   56.9289 C.3     1  ZINC000443933644   -0.1700
      6 C6        -13.8818   -2.0907   57.9020 C.3     1  ZINC000443933644    0.1200
      7 H7        -13.3063   -1.3352   58.4370 H       1  ZINC000443933644    0.1300
      8 N8        -12.9756   -2.9214   57.1052 N.am    1  ZINC000443933644   -1.1100
      9 S9        -11.5094   -2.3207   56.6239 S.o2    1  ZINC000443933644    2.6900
     10 O10       -10.8149   -3.3993   56.0127 O.2     1  ZINC000443933644   -0.9400
     11 O11       -11.7771   -1.0930   55.9603 O.2     1  ZINC000443933644   -0.9400
     12 C12       -10.6090   -1.9120   58.0823 C.ar    1  ZINC000443933644   -0.7000
     13 C13        -9.6063   -0.9287   58.0371 C.ar    1  ZINC000443933644    0.0500
     14 C14        -9.3008   -0.2546   56.8419 C.ar    1  ZINC000443933644   -0.1400
     15 C15        -8.3237    0.6928   56.8337 C.ar    1  ZINC000443933644   -0.0800
     16 C16        -7.6190    1.0063   57.9943 C.ar    1  ZINC000443933644   -0.1200
     17 C17        -7.8878    0.3734   59.1695 C.ar    1  ZINC000443933644   -0.0900
     18 C18        -8.8893   -0.6091   59.2164 C.ar    1  ZINC000443933644   -0.0900
     19 C19        -9.1955   -1.2859   60.4161 C.ar    1  ZINC000443933644    0.2300
     20 N20        -8.5014   -0.9874   61.5901 N.am    1  ZINC000443933644   -0.6700
     21 C21        -9.0824   -0.2319   62.5430 C.2     1  ZINC000443933644    0.5100
     22 C22        -8.3330    0.0903   63.8102 C.3     1  ZINC000443933644   -0.1700
     23 O23       -10.2083    0.1887   62.3806 O.2     1  ZINC000443933644   -0.5100
     24 C24       -10.1862   -2.2440   60.4186 C.ar    1  ZINC000443933644   -0.1600
     25 C25       -10.8881   -2.5448   59.2552 C.ar    1  ZINC000443933644    0.0400
     26 C26       -14.6282   -2.9699   58.9075 C.3     1  ZINC000443933644    0.4300
     27 F27       -15.4595   -2.1704   59.6992 F       1  ZINC000443933644   -0.1700
     28 F28       -15.4026   -3.9104   58.2199 F       1  ZINC000443933644   -0.1600
     29 F29       -13.7046   -3.6328   59.7229 F       1  ZINC000443933644   -0.1700
     30 H30       -16.8600   -1.7025   55.1179 H       1  ZINC000443933644    0.0500
     31 H31       -15.8083   -0.3488   54.6386 H       1  ZINC000443933644    0.0600
     32 H32       -15.8114   -1.8533   53.6875 H       1  ZINC000443933644    0.0600
     33 H33       -14.8595   -3.0782   55.6220 H       1  ZINC000443933644    0.0700
     34 H34       -13.8079   -1.7245   55.1428 H       1  ZINC000443933644    0.0900
     35 H35       -15.3822    0.6017   56.3663 H       1  ZINC000443933644    0.0700
     36 H36       -14.5642    0.4937   57.9435 H       1  ZINC000443933644    0.0600
     37 H37       -13.6363    0.2636   56.4421 H       1  ZINC000443933644    0.0700
     38 H38       -13.2344   -3.8235   56.8596 H       1  ZINC000443933644    0.4300
     39 H39        -9.8385   -0.4876   55.9346 H       1  ZINC000443933644    0.1400
     40 H40        -8.0908    1.2089   55.9141 H       1  ZINC000443933644    0.1300
     41 H41        -6.8483    1.7620   57.9611 H       1  ZINC000443933644    0.1300
     42 H42        -7.3332    0.6260   60.0611 H       1  ZINC000443933644    0.1300
     43 H43        -7.6008   -1.3237   61.7198 H       1  ZINC000443933644    0.4200
     44 H44        -7.3458   -0.3703   63.7756 H       1  ZINC000443933644    0.0800
     45 H45        -8.2267    1.1710   63.9045 H       1  ZINC000443933644    0.1000
     46 H46        -8.8848   -0.2967   64.6668 H       1  ZINC000443933644    0.1000
     47 H47       -10.4234   -2.7642   61.3348 H       1  ZINC000443933644    0.1500
     48 H48       -11.6604   -3.2994   59.2809 H       1  ZINC000443933644    0.1500
@<TRIPOS>BOND
     1     1     2    1
     2     1    30    1
     3     1    31    1
     4     1    32    1
     5     2     3    1
     6     2    33    1
     7     2    34    1
     8     3     4    1
     9     3     5    1
    10     3     6    1
    11     5    35    1
    12     5    36    1
    13     5    37    1
    14     6     7    1
    15     6     8    1
    16     6    26    1
    17     8     9   am
    18     8    38    1
    19     9    10    2
    20     9    11    2
    21     9    12    1
    22    12    25   ar
    23    12    13   ar
    24    13    18   ar
    25    13    14   ar
    26    14    15   ar
    27    14    39    1
    28    15    16   ar
    29    15    40    1
    30    16    17   ar
    31    16    41    1
    32    17    18   ar
    33    17    42    1
    34    18    19   ar
    35    19    20    1
    36    19    24   ar
    37    20    21   am
    38    20    43    1
    39    21    22    1
    40    21    23    2
    41    22    44    1
    42    22    45    1
    43    22    46    1
    44    24    25   ar
    45    24    47    1
    46    25    48    1
    47    26    27    1
    48    26    28    1
    49    26    29    1
@<TRIPOS>SUBSTRUCTURE
     1 ZINC000443933644        1 TEMP              0 ****  ****    0 ROOT


##########                                Name:    ZINC000816269301
##########                DOCK_Rotatable_Bonds:                   7
##########                         Heavy_Atoms:                  25
##########                    Molecular_Weight:             358.784
##########                DOCK_Rotatable_Bonds:                   7
##########                       Formal_Charge:           0.0100002
##########                     HBond_Acceptors:                   8
##########                        HBond_Donors:                   1
##########                         Heavy_Atoms:                  25
##########                          Grid_Score:          -29.943644
##########                     Grid_vdw_energy:          -30.837509
##########                      Grid_es_energy:            0.893866
##########           Internal_energy_repulsive:            4.330578

@<TRIPOS>MOLECULE
ZINC000816269301
 40 42 1 0 0
SMALL
USER_CHARGES


@<TRIPOS>ATOM
      1 C1        -14.5405   -3.5148   57.4263 C.3     1  ZINC000816269301    0.1000
      2 N2        -13.7924   -3.2590   58.6598 N.pl3   1  ZINC000816269301   -0.4000
      3 N3        -14.2609   -3.4197   59.9716 N.2     1  ZINC000816269301    0.0000
      4 N4        -13.3314   -3.1017   60.8020 N.2     1  ZINC000816269301   -0.2000
      5 C5        -12.2180   -2.7204   60.1317 C.ar    1  ZINC000816269301   -0.0300
      6 C6        -10.9556   -2.2885   60.5469 C.ar    1  ZINC000816269301    0.0500
      7 C7         -9.9965   -1.9600   59.5963 C.ar    1  ZINC000816269301   -0.1400
      8 C8         -8.6608   -1.5034   60.0271 C.2     1  ZINC000816269301    0.5200
      9 O9         -8.1708   -1.9384   61.0501 O.2     1  ZINC000816269301   -0.5000
     10 O10        -7.9847   -0.6041   59.2858 O.3     1  ZINC000816269301   -0.3500
     11 C11        -8.5023    0.7522   59.2610 C.3     1  ZINC000816269301    0.0500
     12 C12        -7.5717    1.6381   58.4303 C.3     1  ZINC000816269301    0.1200
     13 N13        -7.4332    1.0747   57.0851 N.am    1  ZINC000816269301   -0.7200
     14 C14        -7.0149    1.8538   56.0679 C.2     1  ZINC000816269301    0.5600
     15 O15        -6.7509    3.0235   56.2672 O.2     1  ZINC000816269301   -0.5300
     16 C16        -6.8770    1.2859   54.7107 C.ar    1  ZINC000816269301   -0.1300
     17 C17        -6.1081    1.9451   53.7498 C.ar    1  ZINC000816269301   -0.0700
     18 C18        -5.9831    1.4103   52.4849 C.ar    1  ZINC000816269301   -0.1200
     19 C19        -6.6187    0.2213   52.1669 C.ar    1  ZINC000816269301   -0.0100
     20 Cl20       -6.4563   -0.4463   50.5726 Cl      1  ZINC000816269301   -0.0600
     21 C21        -7.3829   -0.4374   53.1160 C.ar    1  ZINC000816269301   -0.1200
     22 C22        -7.5105    0.0848   54.3859 C.ar    1  ZINC000816269301   -0.0500
     23 C23       -10.2928   -2.0610   58.2290 C.ar    1  ZINC000816269301   -0.0200
     24 C24       -11.5222   -2.4817   57.8181 C.ar    1  ZINC000816269301   -0.1300
     25 C25       -12.4950   -2.8213   58.7554 C.ar    1  ZINC000816269301    0.1100
     26 H26       -14.3977   -4.5520   57.1232 H       1  ZINC000816269301    0.0900
     27 H27       -15.6006   -3.3294   57.5993 H       1  ZINC000816269301    0.1000
     28 H28       -14.1797   -2.8531   56.6388 H       1  ZINC000816269301    0.1000
     29 H29       -10.7269   -2.2101   61.5996 H       1  ZINC000816269301    0.1600
     30 H30        -9.4975    0.7534   58.8164 H       1  ZINC000816269301    0.0800
     31 H31        -8.5586    1.1383   60.2788 H       1  ZINC000816269301    0.1000
     32 H32        -7.9906    2.6421   58.3624 H       1  ZINC000816269301    0.1000
     33 H33        -6.5927    1.6845   58.9073 H       1  ZINC000816269301    0.0900
     34 H34        -7.6427    0.1409   56.9264 H       1  ZINC000816269301    0.4000
     35 H35        -5.6124    2.8724   53.9965 H       1  ZINC000816269301    0.1400
     36 H36        -5.3889    1.9195   51.7407 H       1  ZINC000816269301    0.1400
     37 H37        -7.8761   -1.3641   52.8623 H       1  ZINC000816269301    0.1400
     38 H38        -8.1063   -0.4298   55.1252 H       1  ZINC000816269301    0.1500
     39 H39        -9.5417   -1.8033   57.4969 H       1  ZINC000816269301    0.1500
     40 H40       -11.7412   -2.5564   56.7631 H       1  ZINC000816269301    0.1400
@<TRIPOS>BOND
     1     1     2    1
     2     1    26    1
     3     1    27    1
     4     1    28    1
     5     2    25    1
     6     2     3    1
     7     3     4    2
     8     4     5    1
     9     5    25   ar
    10     5     6   ar
    11     6     7   ar
    12     6    29    1
    13     7     8    1
    14     7    23   ar
    15     8     9    2
    16     8    10    1
    17    10    11    1
    18    11    12    1
    19    11    30    1
    20    11    31    1
    21    12    13    1
    22    12    32    1
    23    12    33    1
    24    13    14   am
    25    13    34    1
    26    14    15    2
    27    14    16    1
    28    16    22   ar
    29    16    17   ar
    30    17    18   ar
    31    17    35    1
    32    18    19   ar
    33    18    36    1
    34    19    20    1
    35    19    21   ar
    36    21    22   ar
    37    21    37    1
    38    22    38    1
    39    23    24   ar
    40    23    39    1
    41    24    25   ar
    42    24    40    1
@<TRIPOS>SUBSTRUCTURE
     1 ZINC000816269301        1 TEMP              0 ****  ****    0 ROOT


##########                                Name:    ZINC000182044395
##########                DOCK_Rotatable_Bonds:                   8
##########                         Heavy_Atoms:                  28
##########                    Molecular_Weight:             398.889
##########                DOCK_Rotatable_Bonds:                   8
##########                       Formal_Charge:          -0.0399999
##########                     HBond_Acceptors:                   6
##########                        HBond_Donors:                   2
##########                         Heavy_Atoms:                  28
##########                          Grid_Score:          -29.934652
##########                     Grid_vdw_energy:          -29.271023
##########                      Grid_es_energy:           -0.663630
##########           Internal_energy_repulsive:           20.995859

@<TRIPOS>MOLECULE
ZINC000182044395
 51 53 1 0 0
SMALL
USER_CHARGES


@<TRIPOS>ATOM
      1 C1         -7.4269    3.4158   56.5778 C.3     1  ZINC000182044395   -0.1800
      2 C2         -7.1446    1.9628   56.9654 C.3     1  ZINC000182044395    0.0800
      3 N3         -7.9671    1.0700   56.1453 N.pl3   1  ZINC000182044395   -0.4800
      4 C4         -9.0735    0.5419   56.6846 C.2     1  ZINC000182044395    0.2500
      5 C5         -9.9017   -0.3073   55.9803 C.2     1  ZINC000182044395   -0.3500
      6 C6        -11.1088   -0.8663   56.6089 C.2     1  ZINC000182044395    0.5900
      7 O7        -12.1729   -0.2860   56.5052 O.2     1  ZINC000182044395   -0.5600
      8 N8        -11.0356   -2.0213   57.2996 N.am    1  ZINC000182044395   -0.7200
      9 C9        -12.2376   -2.5778   57.9256 C.3     1  ZINC000182044395    0.1100
     10 H10       -13.1209   -2.2255   57.3930 H       1  ZINC000182044395    0.0900
     11 C11       -12.1823   -4.1057   57.8670 C.3     1  ZINC000182044395   -0.1600
     12 C12       -12.3082   -2.1256   59.3856 C.3     1  ZINC000182044395    0.1100
     13 H13       -12.3328   -1.0367   59.4277 H       1  ZINC000182044395    0.1100
     14 O14       -13.4904   -2.6527   59.9908 O.3     1  ZINC000182044395   -0.5500
     15 C15       -11.0783   -2.6374   60.1380 C.3     1  ZINC000182044395   -0.1100
     16 C16       -10.5299   -1.5381   61.0108 C.ar    1  ZINC000182044395   -0.0800
     17 C17       -11.3906   -0.7479   61.7497 C.ar    1  ZINC000182044395   -0.1000
     18 C18       -10.8876    0.2608   62.5500 C.ar    1  ZINC000182044395   -0.1200
     19 C19        -9.5240    0.4787   62.6121 C.ar    1  ZINC000182044395   -0.1200
     20 C20        -8.6637   -0.3082   61.8696 C.ar    1  ZINC000182044395   -0.1200
     21 C21        -9.1664   -1.3195   61.0723 C.ar    1  ZINC000182044395   -0.1200
     22 C22        -9.5545   -0.6497   54.5920 C.2     1  ZINC000182044395    0.4400
     23 O23       -10.2505   -1.3993   53.9298 O.2     1  ZINC000182044395   -0.4900
     24 C24        -8.3314   -0.0429   54.0342 C.ar    1  ZINC000182044395   -0.1800
     25 C25        -7.9277   -0.3063   52.7256 C.ar    1  ZINC000182044395   -0.0200
     26 C26        -6.7753    0.2732   52.2390 C.ar    1  ZINC000182044395   -0.0700
     27 Cl27       -6.2658   -0.0503   50.6112 Cl      1  ZINC000182044395   -0.0500
     28 C28        -6.0207    1.1149   53.0453 C.ar    1  ZINC000182044395   -0.0500
     29 C29        -6.4089    1.3836   54.3396 C.ar    1  ZINC000182044395   -0.1600
     30 C30        -7.5690    0.8088   54.8518 C.ar    1  ZINC000182044395    0.1900
     31 H31        -8.4811    3.6379   56.7440 H       1  ZINC000182044395    0.0700
     32 H32        -6.8150    4.0801   57.1880 H       1  ZINC000182044395    0.0800
     33 H33        -7.1860    3.5644   55.5253 H       1  ZINC000182044395    0.0700
     34 H34        -7.3856    1.8142   58.0180 H       1  ZINC000182044395    0.1000
     35 H35        -6.0905    1.7407   56.7991 H       1  ZINC000182044395    0.1100
     36 H36        -9.3261    0.7896   57.7051 H       1  ZINC000182044395    0.1800
     37 H37       -10.1871   -2.4840   57.3822 H       1  ZINC000182044395    0.4100
     38 H38       -12.1319   -4.4278   56.8269 H       1  ZINC000182044395    0.0600
     39 H39       -11.2990   -4.4580   58.3997 H       1  ZINC000182044395    0.0600
     40 H40       -13.0766   -4.5198   58.3328 H       1  ZINC000182044395    0.0600
     41 H41       -13.8751   -2.0790   60.6676 H       1  ZINC000182044395    0.3700
     42 H42       -10.3169   -2.9468   59.4220 H       1  ZINC000182044395    0.0800
     43 H43       -11.3601   -3.4879   60.7589 H       1  ZINC000182044395    0.0800
     44 H44       -12.4559   -0.9185   61.7014 H       1  ZINC000182044395    0.1200
     45 H45       -11.5601    0.8783   63.1269 H       1  ZINC000182044395    0.1200
     46 H46        -9.1310    1.2668   63.2374 H       1  ZINC000182044395    0.1200
     47 H47        -7.5986   -0.1351   61.9146 H       1  ZINC000182044395    0.1200
     48 H48        -8.4939   -1.9367   60.4948 H       1  ZINC000182044395    0.1200
     49 H49        -8.5141   -0.9603   52.0974 H       1  ZINC000182044395    0.1500
     50 H50        -5.1201    1.5640   52.6535 H       1  ZINC000182044395    0.1500
     51 H51        -5.8136    2.0402   54.9566 H       1  ZINC000182044395    0.1500
@<TRIPOS>BOND
     1     1     2    1
     2     1    31    1
     3     1    32    1
     4     1    33    1
     5     2     3    1
     6     2    34    1
     7     2    35    1
     8     3    30    1
     9     3     4    1
    10     4     5    2
    11     4    36    1
    12     5     6    1
    13     5    22    1
    14     6     7    2
    15     6     8   am
    16     8     9    1
    17     8    37    1
    18     9    10    1
    19     9    11    1
    20     9    12    1
    21    11    38    1
    22    11    39    1
    23    11    40    1
    24    12    13    1
    25    12    14    1
    26    12    15    1
    27    14    41    1
    28    15    16    1
    29    15    42    1
    30    15    43    1
    31    16    21   ar
    32    16    17   ar
    33    17    18   ar
    34    17    44    1
    35    18    19   ar
    36    18    45    1
    37    19    20   ar
    38    19    46    1
    39    20    21   ar
    40    20    47    1
    41    21    48    1
    42    22    23    2
    43    22    24    1
    44    24    30   ar
    45    24    25   ar
    46    25    26   ar
    47    25    49    1
    48    26    27    1
    49    26    28   ar
    50    28    29   ar
    51    28    50    1
    52    29    30   ar
    53    29    51    1
@<TRIPOS>SUBSTRUCTURE
     1 ZINC000182044395        1 TEMP              0 ****  ****    0 ROOT


##########                                Name:    ZINC001492779707
##########                DOCK_Rotatable_Bonds:                   8
##########                         Heavy_Atoms:                  27
##########                    Molecular_Weight:             374.483
##########                DOCK_Rotatable_Bonds:                   8
##########                       Formal_Charge:           0.0199998
##########                     HBond_Acceptors:                   7
##########                        HBond_Donors:                   0
##########                         Heavy_Atoms:                  27
##########                          Grid_Score:          -29.931908
##########                     Grid_vdw_energy:          -29.506994
##########                      Grid_es_energy:           -0.424914
##########           Internal_energy_repulsive:           12.131383

@<TRIPOS>MOLECULE
ZINC001492779707
 57 59 1 0 0
SMALL
USER_CHARGES


@<TRIPOS>ATOM
      1 C1         -5.8897    2.9792   49.6585 C.3     1  ZINC001492779707   -0.0700
      2 C2         -6.5692    1.9168   50.4834 C.2     1  ZINC001492779707    0.1800
      3 N3         -6.5274    0.6315   50.2732 N.2     1  ZINC001492779707   -0.2900
      4 N4         -7.2177    0.0163   51.1660 N.2     1  ZINC001492779707   -0.3100
      5 C5         -7.7411    0.8833   52.0005 C.2     1  ZINC001492779707    0.3400
      6 N6         -8.5455    0.5945   53.0915 N.3     1  ZINC001492779707   -0.4600
      7 C7         -9.8026   -0.0357   52.6665 C.3     1  ZINC001492779707    0.0300
      8 C8         -7.8346   -0.2500   54.0607 C.3     1  ZINC001492779707    0.1100
      9 C9         -7.7900    0.4467   55.3962 C.ar    1  ZINC001492779707   -0.0400
     10 C10        -6.9347    1.5155   55.5895 C.ar    1  ZINC001492779707   -0.1300
     11 C11        -6.8914    2.1569   56.8138 C.ar    1  ZINC001492779707   -0.0800
     12 C12        -7.7029    1.7309   57.8470 C.ar    1  ZINC001492779707   -0.2100
     13 C13        -8.5622    0.6584   57.6556 C.ar    1  ZINC001492779707    0.1300
     14 O14        -9.3621    0.2375   58.6706 O.3     1  ZINC001492779707   -0.3100
     15 C15        -8.8173   -0.7341   59.5658 C.3     1  ZINC001492779707    0.0800
     16 C16        -9.0619   -0.2909   61.0097 C.3     1  ZINC001492779707   -0.1500
     17 C17        -9.4940   -2.0851   59.3254 C.3     1  ZINC001492779707   -0.1800
     18 C18        -8.6079    0.0202   56.4250 C.ar    1  ZINC001492779707   -0.1400
     19 N19        -7.3390    2.1224   51.5947 N.pl3   1  ZINC001492779707   -0.4600
     20 C20        -7.6711    3.4074   52.2151 C.3     1  ZINC001492779707    0.1200
     21 C21        -9.1318    3.7539   51.9199 C.3     1  ZINC001492779707   -0.1200
     22 C22        -9.2976    4.0331   50.4248 C.3     1  ZINC001492779707    0.0600
     23 H23        -9.0145    3.1479   49.8553 H       1  ZINC001492779707    0.0800
     24 C24       -10.7580    4.3866   50.1290 C.3     1  ZINC001492779707    0.0300
     25 O25       -10.8823    4.7545   48.7520 O.3     1  ZINC001492779707   -0.3800
     26 C26       -10.0478    5.8540   48.3755 C.3     1  ZINC001492779707    0.0200
     27 C27        -8.5874    5.5005   48.6712 C.3     1  ZINC001492779707    0.0300
     28 O28        -8.4620    5.1317   50.0480 O.3     1  ZINC001492779707   -0.3800
     29 H29        -4.8898    3.1610   50.0526 H       1  ZINC001492779707    0.0900
     30 H30        -5.8171    2.6447   48.6236 H       1  ZINC001492779707    0.1000
     31 H31        -6.4706    3.9004   49.7026 H       1  ZINC001492779707    0.0800
     32 H32        -9.5911   -1.0147   52.2366 H       1  ZINC001492779707    0.0500
     33 H33       -10.4603   -0.1516   53.5279 H       1  ZINC001492779707    0.0900
     34 H34       -10.2891    0.5917   51.9196 H       1  ZINC001492779707    0.0700
     35 H35        -8.3559   -1.2016   54.1646 H       1  ZINC001492779707    0.0700
     36 H36        -6.8182   -0.4290   53.7101 H       1  ZINC001492779707    0.0900
     37 H37        -6.2991    1.8499   54.7829 H       1  ZINC001492779707    0.1200
     38 H38        -6.2221    2.9914   56.9623 H       1  ZINC001492779707    0.1300
     39 H39        -7.6685    2.2319   58.8032 H       1  ZINC001492779707    0.1300
     40 H40        -7.7456   -0.8283   59.3913 H       1  ZINC001492779707    0.0700
     41 H41       -10.1337   -0.1967   61.1842 H       1  ZINC001492779707    0.0700
     42 H42        -8.6463   -1.0320   61.6925 H       1  ZINC001492779707    0.0800
     43 H43        -8.5799    0.6716   61.1809 H       1  ZINC001492779707    0.0700
     44 H44        -9.3197   -2.4008   58.2968 H       1  ZINC001492779707    0.0600
     45 H45        -9.0783   -2.8262   60.0083 H       1  ZINC001492779707    0.0700
     46 H46       -10.5657   -1.9909   59.4999 H       1  ZINC001492779707    0.0700
     47 H47        -9.2759   -0.8148   56.2735 H       1  ZINC001492779707    0.1300
     48 H48        -7.5244    3.3391   53.2930 H       1  ZINC001492779707    0.1000
     49 H49        -7.0241    4.1848   51.8088 H       1  ZINC001492779707    0.1000
     50 H50        -9.7688    2.9169   52.2061 H       1  ZINC001492779707    0.0900
     51 H51        -9.4174    4.6388   52.4887 H       1  ZINC001492779707    0.0800
     52 H52       -11.3906    3.5228   50.3339 H       1  ZINC001492779707    0.1100
     53 H53       -11.0654    5.2218   50.7584 H       1  ZINC001492779707    0.0600
     54 H54       -10.1660    6.0529   47.3103 H       1  ZINC001492779707    0.1100
     55 H55       -10.3312    6.7385   48.9458 H       1  ZINC001492779707    0.0600
     56 H56        -8.2801    4.6653   48.0419 H       1  ZINC001492779707    0.0600
     57 H57        -7.9549    6.3643   48.4664 H       1  ZINC001492779707    0.1100
@<TRIPOS>BOND
     1     1     2    1
     2     1    29    1
     3     1    30    1
     4     1    31    1
     5     2    19    1
     6     2     3    2
     7     3     4    1
     8     4     5    2
     9     5     6    1
    10     5    19    1
    11     6     7    1
    12     6     8    1
    13     7    32    1
    14     7    33    1
    15     7    34    1
    16     8     9    1
    17     8    35    1
    18     8    36    1
    19     9    18   ar
    20     9    10   ar
    21    10    11   ar
    22    10    37    1
    23    11    12   ar
    24    11    38    1
    25    12    13   ar
    26    12    39    1
    27    13    14    1
    28    13    18   ar
    29    14    15    1
    30    15    16    1
    31    15    17    1
    32    15    40    1
    33    16    41    1
    34    16    42    1
    35    16    43    1
    36    17    44    1
    37    17    45    1
    38    17    46    1
    39    18    47    1
    40    19    20    1
    41    20    21    1
    42    20    48    1
    43    20    49    1
    44    21    22    1
    45    21    50    1
    46    21    51    1
    47    22    23    1
    48    22    28    1
    49    22    24    1
    50    24    25    1
    51    24    52    1
    52    24    53    1
    53    25    26    1
    54    26    27    1
    55    26    54    1
    56    26    55    1
    57    27    28    1
    58    27    56    1
    59    27    57    1
@<TRIPOS>SUBSTRUCTURE
     1 ZINC001492779707        1 TEMP              0 ****  ****    0 ROOT


##########                                Name:    ZINC000774689801
##########                DOCK_Rotatable_Bonds:                   4
##########                         Heavy_Atoms:                  24
##########                    Molecular_Weight:             347.395
##########                DOCK_Rotatable_Bonds:                   4
##########                       Formal_Charge:         -0.00999961
##########                     HBond_Acceptors:                   8
##########                        HBond_Donors:                   1
##########                         Heavy_Atoms:                  24
##########                          Grid_Score:          -29.920425
##########                     Grid_vdw_energy:          -27.755630
##########                      Grid_es_energy:           -2.164795
##########           Internal_energy_repulsive:            6.873493

@<TRIPOS>MOLECULE
ZINC000774689801
 41 44 1 0 0
SMALL
USER_CHARGES


@<TRIPOS>ATOM
      1 C1         -9.7146   -1.2080   54.4124 C.3     1  ZINC000774689801   -0.1200
      2 C2         -8.7559   -0.1022   54.7719 C.2     1  ZINC000774689801    0.0600
      3 C3         -8.7438    0.4688   55.9871 C.2     1  ZINC000774689801   -0.2800
      4 C4         -9.6342    0.1024   57.0904 C.2     1  ZINC000774689801    0.5500
      5 O5        -10.6480    0.7433   57.2922 O.2     1  ZINC000774689801   -0.4900
      6 O6         -9.3300   -0.9460   57.8830 O.3     1  ZINC000774689801   -0.3400
      7 C7        -10.1665   -1.1534   59.0515 C.3     1  ZINC000774689801    0.0900
      8 C8         -9.7414   -0.1890   60.1607 C.3     1  ZINC000774689801   -0.1300
      9 H9         -9.8826    0.8437   59.8419 H       1  ZINC000774689801    0.1200
     10 C10       -10.5380   -0.4691   61.4561 C.3     1  ZINC000774689801   -0.1300
     11 C11        -9.4723   -0.2086   62.5437 C.3     1  ZINC000774689801    0.1000
     12 N12        -8.1797   -0.4446   61.8898 N.am    1  ZINC000774689801   -0.7400
     13 C13        -8.2993   -0.4310   60.5487 C.2     1  ZINC000774689801    0.5200
     14 O14        -7.3854   -0.5928   59.7680 O.2     1  ZINC000774689801   -0.5100
     15 S15        -7.5107    1.7156   56.0682 S.3     1  ZINC000774689801    0.3000
     16 C16        -7.0321    1.4188   54.4012 C.2     1  ZINC000774689801    0.1000
     17 C17        -7.8185    0.3927   53.8672 C.2     1  ZINC000774689801   -0.2500
     18 C18        -7.5529    0.0081   52.4678 C.2     1  ZINC000774689801    0.5700
     19 O19        -8.1975   -0.8763   51.9329 O.2     1  ZINC000774689801   -0.5000
     20 N20        -6.5780    0.6590   51.7907 N.am    1  ZINC000774689801   -0.5500
     21 C21        -6.1257    0.4569   50.4034 C.3     1  ZINC000774689801    0.0900
     22 C22        -5.3349    1.7293   50.0355 C.3     1  ZINC000774689801   -0.1300
     23 C23        -4.8485    2.2101   51.4196 C.3     1  ZINC000774689801   -0.0800
     24 C24        -5.8682    1.6454   52.3947 C.2     1  ZINC000774689801    0.4200
     25 N25        -6.0888    1.9929   53.6348 N.2     1  ZINC000774689801   -0.5100
     26 H26        -9.2639   -2.1714   54.6511 H       1  ZINC000774689801    0.0800
     27 H27       -10.6372   -1.0879   54.9802 H       1  ZINC000774689801    0.1000
     28 H28        -9.9359   -1.1647   53.3460 H       1  ZINC000774689801    0.0800
     29 H29       -11.2085   -0.9695   58.7898 H       1  ZINC000774689801    0.0900
     30 H30       -10.0553   -2.1801   59.4004 H       1  ZINC000774689801    0.0800
     31 H31       -11.3748    0.2219   61.5566 H       1  ZINC000774689801    0.1000
     32 H32       -10.8819   -1.5030   61.4867 H       1  ZINC000774689801    0.0900
     33 H33        -9.5351    0.8216   62.8943 H       1  ZINC000774689801    0.0800
     34 H34        -9.6057   -0.8999   63.3758 H       1  ZINC000774689801    0.0800
     35 H35        -7.3455   -0.5900   62.3630 H       1  ZINC000774689801    0.4100
     36 H36        -5.4801   -0.4191   50.3415 H       1  ZINC000774689801    0.1000
     37 H37        -6.9832    0.3415   49.7406 H       1  ZINC000774689801    0.1000
     38 H38        -4.4918    1.4905   49.3872 H       1  ZINC000774689801    0.1100
     39 H39        -5.9844    2.4713   49.5709 H       1  ZINC000774689801    0.0900
     40 H40        -3.8562    1.8132   51.6338 H       1  ZINC000774689801    0.1200
     41 H41        -4.8418    3.2992   51.4638 H       1  ZINC000774689801    0.1200
@<TRIPOS>BOND
     1     1     2    1
     2     1    26    1
     3     1    27    1
     4     1    28    1
     5     2    17    1
     6     2     3    2
     7     3     4    1
     8     3    15    1
     9     4     5    2
    10     4     6    1
    11     6     7    1
    12     7     8    1
    13     7    29    1
    14     7    30    1
    15     8     9    1
    16     8    13    1
    17     8    10    1
    18    10    11    1
    19    10    31    1
    20    10    32    1
    21    11    12    1
    22    11    33    1
    23    11    34    1
    24    12    13   am
    25    12    35    1
    26    13    14    2
    27    15    16    1
    28    16    25    1
    29    16    17    2
    30    17    18    1
    31    18    19    2
    32    18    20   am
    33    20    24    1
    34    20    21    1
    35    21    22    1
    36    21    36    1
    37    21    37    1
    38    22    23    1
    39    22    38    1
    40    22    39    1
    41    23    24    1
    42    23    40    1
    43    23    41    1
    44    24    25    2
@<TRIPOS>SUBSTRUCTURE
     1 ZINC000774689801        1 TEMP              0 ****  ****    0 ROOT


##########                                Name:    ZINC000573650873
##########                DOCK_Rotatable_Bonds:                  10
##########                         Heavy_Atoms:                  28
##########                    Molecular_Weight:             418.843
##########                DOCK_Rotatable_Bonds:                  10
##########                       Formal_Charge:          -0.0500001
##########                     HBond_Acceptors:                   9
##########                        HBond_Donors:                   1
##########                         Heavy_Atoms:                  28
##########                          Grid_Score:          -29.915779
##########                     Grid_vdw_energy:          -29.951601
##########                      Grid_es_energy:            0.035823
##########           Internal_energy_repulsive:           12.177675

@<TRIPOS>MOLECULE
ZINC000573650873
 50 51 1 0 0
SMALL
USER_CHARGES


@<TRIPOS>ATOM
      1 C1        -15.2722   -3.5434   59.1102 C.3     1  ZINC000573650873   -0.1400
      2 C2        -14.4560   -2.3550   59.6227 C.3     1  ZINC000573650873    0.0100
      3 C3        -15.1589   -1.0509   59.2407 C.3     1  ZINC000573650873   -0.1400
      4 C4        -14.3317   -2.4403   61.1453 C.3     1  ZINC000573650873   -0.1500
      5 C5        -13.0822   -2.3850   59.0041 C.2     1  ZINC000573650873   -0.0100
      6 C6        -12.7343   -1.9113   57.7852 C.2     1  ZINC000573650873   -0.1800
      7 C7        -11.3411   -2.1856   57.6961 C.2     1  ZINC000573650873   -0.0300
      8 C8        -10.4419   -1.8726   56.5589 C.2     1  ZINC000573650873    0.6000
      9 O9        -10.2725   -2.6895   55.6757 O.2     1  ZINC000573650873   -0.5100
     10 N10        -9.8127   -0.6819   56.5052 N.am    1  ZINC000573650873   -0.5900
     11 C11        -8.9246   -0.3727   55.3818 C.3     1  ZINC000573650873    0.1200
     12 C12        -9.7625   -0.0519   54.1425 C.3     1  ZINC000573650873   -0.1000
     13 C13        -8.8669    0.4838   53.0554 C.ar    1  ZINC000573650873   -0.0800
     14 C14        -8.9304    1.8192   52.7035 C.ar    1  ZINC000573650873   -0.1000
     15 C15        -8.1092    2.3113   51.7065 C.ar    1  ZINC000573650873   -0.1100
     16 C16        -7.2236    1.4670   51.0608 C.ar    1  ZINC000573650873   -0.0400
     17 Cl17       -6.1914    2.0843   49.8088 Cl      1  ZINC000573650873   -0.0700
     18 C18        -7.1605    0.1306   51.4134 C.ar    1  ZINC000573650873   -0.1100
     19 C19        -7.9783   -0.3589   52.4144 C.ar    1  ZINC000573650873   -0.1000
     20 C20       -10.0169    0.3032   57.5702 C.3     1  ZINC000573650873    0.0700
     21 C21        -9.0441    0.0229   58.7175 C.3     1  ZINC000573650873    0.0600
     22 H22        -9.0052   -1.0498   58.9069 H       1  ZINC000573650873    0.1400
     23 O23        -7.7416    0.4916   58.3627 O.3     1  ZINC000573650873   -0.5200
     24 C24        -9.5207    0.7465   59.9784 C.3     1  ZINC000573650873    0.4300
     25 F25        -8.6428    0.4736   61.0328 F       1  ZINC000573650873   -0.1700
     26 F26        -9.5508    2.1250   59.7416 F       1  ZINC000573650873   -0.1700
     27 F27       -10.8045    0.3029   60.3137 F       1  ZINC000573650873   -0.1800
     28 N28       -11.0128   -2.7699   58.8216 N.2     1  ZINC000573650873   -0.3400
     29 O29       -11.9664   -2.8809   59.5565 O.3     1  ZINC000573650873    0.1300
     30 H30       -15.3608   -3.4826   58.0255 H       1  ZINC000573650873    0.0600
     31 H31       -14.7714   -4.4725   59.3824 H       1  ZINC000573650873    0.0600
     32 H32       -16.2658   -3.5217   59.5577 H       1  ZINC000573650873    0.0700
     33 H33       -16.1526   -1.0292   59.6881 H       1  ZINC000573650873    0.0700
     34 H34       -14.5775   -0.2043   59.6058 H       1  ZINC000573650873    0.0600
     35 H35       -15.2475   -0.9900   58.1559 H       1  ZINC000573650873    0.0600
     36 H36       -13.8309   -3.3694   61.4175 H       1  ZINC000573650873    0.0600
     37 H37       -13.7503   -1.5938   61.5104 H       1  ZINC000573650873    0.0600
     38 H38       -15.3254   -2.4187   61.5927 H       1  ZINC000573650873    0.0700
     39 H39       -13.3672   -1.4357   57.0506 H       1  ZINC000573650873    0.1800
     40 H40        -8.3054    0.4880   55.6345 H       1  ZINC000573650873    0.0900
     41 H41        -8.2861   -1.2319   55.1763 H       1  ZINC000573650873    0.1000
     42 H42       -10.2559   -0.9588   53.7928 H       1  ZINC000573650873    0.0800
     43 H43       -10.5141    0.6960   54.3957 H       1  ZINC000573650873    0.0800
     44 H44        -9.6221    2.4781   53.2074 H       1  ZINC000573650873    0.1300
     45 H45        -8.1592    3.3544   51.4314 H       1  ZINC000573650873    0.1300
     46 H46        -6.4696   -0.5290   50.9094 H       1  ZINC000573650873    0.1300
     47 H47        -7.9289   -1.4020   52.6900 H       1  ZINC000573650873    0.1300
     48 H48        -9.8378    1.3043   57.1783 H       1  ZINC000573650873    0.1000
     49 H49       -11.0410    0.2345   57.9372 H       1  ZINC000573650873    0.1200
     50 H50        -7.6725    1.4544   58.3039 H       1  ZINC000573650873    0.3900
@<TRIPOS>BOND
     1     1     2    1
     2     1    30    1
     3     1    31    1
     4     1    32    1
     5     2     3    1
     6     2     4    1
     7     2     5    1
     8     3    33    1
     9     3    34    1
    10     3    35    1
    11     4    36    1
    12     4    37    1
    13     4    38    1
    14     5    29    1
    15     5     6    2
    16     6     7    1
    17     6    39    1
    18     7     8    1
    19     7    28    2
    20     8     9    2
    21     8    10   am
    22    10    11    1
    23    10    20    1
    24    11    12    1
    25    11    40    1
    26    11    41    1
    27    12    13    1
    28    12    42    1
    29    12    43    1
    30    13    19   ar
    31    13    14   ar
    32    14    15   ar
    33    14    44    1
    34    15    16   ar
    35    15    45    1
    36    16    17    1
    37    16    18   ar
    38    18    19   ar
    39    18    46    1
    40    19    47    1
    41    20    21    1
    42    20    48    1
    43    20    49    1
    44    21    22    1
    45    21    23    1
    46    21    24    1
    47    23    50    1
    48    24    25    1
    49    24    26    1
    50    24    27    1
    51    28    29    1
@<TRIPOS>SUBSTRUCTURE
     1 ZINC000573650873        1 TEMP              0 ****  ****    0 ROOT


##########                                Name:    ZINC000876376999
##########                DOCK_Rotatable_Bonds:                   7
##########                         Heavy_Atoms:                  24
##########                    Molecular_Weight:             358.502
##########                DOCK_Rotatable_Bonds:                   7
##########                       Formal_Charge:          -0.0299994
##########                     HBond_Acceptors:                   7
##########                        HBond_Donors:                   2
##########                         Heavy_Atoms:                  24
##########                          Grid_Score:          -29.900457
##########                     Grid_vdw_energy:          -30.652828
##########                      Grid_es_energy:            0.752370
##########           Internal_energy_repulsive:           32.995014

@<TRIPOS>MOLECULE
ZINC000876376999
 54 56 1 0 0
SMALL
USER_CHARGES


@<TRIPOS>ATOM
      1 C1         -5.7880    1.8243   51.3438 C.3     1  ZINC000876376999   -0.1500
      2 C2         -7.3027    1.7632   51.5506 C.3     1  ZINC000876376999   -0.1100
      3 C3         -7.6082    1.0748   52.8823 C.3     1  ZINC000876376999   -0.0700
      4 C4         -6.9319   -0.2972   52.9149 C.3     1  ZINC000876376999    0.0900
      5 O5         -7.1668   -0.9736   51.6784 O.3     1  ZINC000876376999   -0.5600
      6 C6         -7.0798    1.9330   54.0341 C.3     1  ZINC000876376999   -0.1100
      7 C7         -7.3557    1.2296   55.3650 C.3     1  ZINC000876376999   -0.1400
      8 C8         -8.8676    1.0584   55.5437 C.3     1  ZINC000876376999    0.1100
      9 N9         -9.4065    0.3599   54.3689 N.am    1  ZINC000876376999   -0.6300
     10 C10       -10.1473   -0.7567   54.5137 C.2     1  ZINC000876376999    0.7100
     11 O11       -10.5878   -1.3255   53.5336 O.2     1  ZINC000876376999   -0.5800
     12 N12       -10.4000   -1.2426   55.7453 N.am    1  ZINC000876376999   -0.7500
     13 C13       -11.2052   -2.4563   55.9028 C.3     1  ZINC000876376999    0.1400
     14 C14       -11.6681   -2.5771   57.3598 C.3     1  ZINC000876376999   -0.1100
     15 C15       -12.7807   -1.6036   57.6390 C.3     1  ZINC000876376999   -0.1100
     16 C16       -14.2011   -2.1794   57.6025 C.3     1  ZINC000876376999   -0.5200
     17 H17       -14.9847   -1.4306   57.7837 H       1  ZINC000876376999    0.1500
     18 C18       -14.3695   -2.9194   56.2557 C.3     1  ZINC000876376999   -0.1200
     19 C19       -13.7884   -4.3275   56.3235 C.3     1  ZINC000876376999   -0.1200
     20 C20       -13.1938   -4.6204   57.7202 C.3     1  ZINC000876376999   -0.5300
     21 H21       -13.2290   -5.6854   57.9887 H       1  ZINC000876376999    0.1500
     22 C22       -11.7818   -4.0240   57.7557 C.3     1  ZINC000876376999   -0.1000
     23 S23       -14.2202   -3.5597   58.8212 S.o2    1  ZINC000876376999    2.3700
     24 O24       -13.4849   -3.2004   59.9820 O.2     1  ZINC000876376999   -0.9300
     25 O25       -15.5313   -4.0954   58.9337 O.2     1  ZINC000876376999   -0.9300
     26 C26        -9.1229    0.9019   53.0329 C.3     1  ZINC000876376999    0.1400
     27 H27        -5.3420    2.4585   52.1099 H       1  ZINC000876376999    0.0500
     28 H28        -5.3708    0.8200   51.4154 H       1  ZINC000876376999    0.0600
     29 H29        -5.5723    2.2381   50.3587 H       1  ZINC000876376999    0.0500
     30 H30        -7.7089    2.7747   51.5629 H       1  ZINC000876376999    0.0600
     31 H31        -7.7581    1.1988   50.7370 H       1  ZINC000876376999    0.0700
     32 H32        -5.8593   -0.1701   53.0615 H       1  ZINC000876376999    0.0500
     33 H33        -7.3434   -0.8857   53.7350 H       1  ZINC000876376999    0.0400
     34 H34        -6.8265   -0.5061   50.9034 H       1  ZINC000876376999    0.3800
     35 H35        -6.0060    2.0782   53.9158 H       1  ZINC000876376999    0.0700
     36 H36        -7.5802    2.9014   54.0246 H       1  ZINC000876376999    0.0700
     37 H37        -6.8763    0.2508   55.3654 H       1  ZINC000876376999    0.0700
     38 H38        -6.9585    1.8302   56.1832 H       1  ZINC000876376999    0.0800
     39 H39        -9.0653    0.4713   56.4405 H       1  ZINC000876376999    0.0700
     40 H40        -9.3379    2.0374   55.6343 H       1  ZINC000876376999    0.0700
     41 H41       -10.0487   -0.7887   56.5272 H       1  ZINC000876376999    0.3900
     42 H42       -12.0753   -2.4026   55.2484 H       1  ZINC000876376999    0.0800
     43 H43       -10.6052   -3.3272   55.6388 H       1  ZINC000876376999    0.0700
     44 H44       -10.7915   -2.1868   57.9503 H       1  ZINC000876376999    0.0900
     45 H45       -12.6138   -1.1452   58.6294 H       1  ZINC000876376999    0.0900
     46 H46       -12.7203   -0.7732   56.9141 H       1  ZINC000876376999    0.0900
     47 H47       -15.4373   -2.9949   56.0281 H       1  ZINC000876376999    0.0800
     48 H48       -13.8886   -2.3577   55.4602 H       1  ZINC000876376999    0.0900
     49 H49       -14.5914   -5.0446   56.1268 H       1  ZINC000876376999    0.0800
     50 H50       -13.0247   -4.4506   55.5611 H       1  ZINC000876376999    0.0900
     51 H51       -11.1299   -4.6271   57.1000 H       1  ZINC000876376999    0.0900
     52 H52       -11.3745   -4.1485   58.7744 H       1  ZINC000876376999    0.0900
     53 H53        -9.6141    1.8682   52.9189 H       1  ZINC000876376999    0.0600
     54 H54        -9.4892    0.2115   52.2731 H       1  ZINC000876376999    0.1000
@<TRIPOS>BOND
     1     1     2    1
     2     1    27    1
     3     1    28    1
     4     1    29    1
     5     2     3    1
     6     2    30    1
     7     2    31    1
     8     3    26    1
     9     3     4    1
    10     3     6    1
    11     4     5    1
    12     4    32    1
    13     4    33    1
    14     5    34    1
    15     6     7    1
    16     6    35    1
    17     6    36    1
    18     7     8    1
    19     7    37    1
    20     7    38    1
    21     8     9    1
    22     8    39    1
    23     8    40    1
    24     9    10   am
    25     9    26    1
    26    10    11    2
    27    10    12   am
    28    12    13    1
    29    12    41    1
    30    13    14    1
    31    13    42    1
    32    13    43    1
    33    14    22    1
    34    14    15    1
    35    14    44    1
    36    15    16    1
    37    15    45    1
    38    15    46    1
    39    16    17    1
    40    16    23    1
    41    16    18    1
    42    18    19    1
    43    18    47    1
    44    18    48    1
    45    19    20    1
    46    19    49    1
    47    19    50    1
    48    20    21    1
    49    20    22    1
    50    20    23    1
    51    22    51    1
    52    22    52    1
    53    23    24    2
    54    23    25    2
    55    26    53    1
    56    26    54    1
@<TRIPOS>SUBSTRUCTURE
     1 ZINC000876376999        1 TEMP              0 ****  ****    0 ROOT


##########                                Name:    ZINC001579482641
##########                DOCK_Rotatable_Bonds:                   5
##########                         Heavy_Atoms:                  26
##########                    Molecular_Weight:             355.359
##########                DOCK_Rotatable_Bonds:                   5
##########                       Formal_Charge:                0.05
##########                     HBond_Acceptors:                  11
##########                        HBond_Donors:                   1
##########                         Heavy_Atoms:                  26
##########                          Grid_Score:          -29.890545
##########                     Grid_vdw_energy:          -29.061903
##########                      Grid_es_energy:           -0.828643
##########           Internal_energy_repulsive:           11.327498

@<TRIPOS>MOLECULE
ZINC001579482641
 43 46 1 0 0
SMALL
USER_CHARGES


@<TRIPOS>ATOM
      1 C1         -7.0998   -0.4445   51.6752 C.3     1  ZINC001579482641    0.0300
      2 O2         -7.3528   -0.6853   53.0846 O.3     1  ZINC001579482641   -0.3300
      3 C3         -8.6380   -0.6621   53.4881 C.2     1  ZINC001579482641    0.5300
      4 O4         -9.5305   -0.5771   52.6683 O.2     1  ZINC001579482641   -0.4900
      5 C5         -8.9620   -0.7399   54.9274 C.ar    1  ZINC001579482641    0.0900
      6 C6         -8.4225    0.2003   55.8069 C.ar    1  ZINC001579482641   -0.0800
      7 C7         -8.7289    0.1231   57.1533 C.ar    1  ZINC001579482641   -0.1200
      8 C8         -9.5713   -0.8982   57.5862 C.ar    1  ZINC001579482641    0.1100
      9 N9         -9.9054   -1.0129   58.9287 N.3     1  ZINC001579482641   -0.4600
     10 C10        -8.6972   -1.2490   59.7598 C.3     1  ZINC001579482641    0.0400
     11 C11        -9.1552   -0.8283   61.1788 C.3     1  ZINC001579482641   -0.1100
     12 C12       -10.0608    0.3936   60.9018 C.3     1  ZINC001579482641   -0.0100
     13 H13        -9.4990    1.3183   61.0331 H       1  ZINC001579482641    0.0900
     14 C14       -11.2580    0.3754   61.8168 C.2     1  ZINC001579482641    0.1800
     15 N15       -12.5097    0.3142   61.4519 N.2     1  ZINC001579482641   -0.2600
     16 N16       -13.2647    0.3169   62.4928 N.2     1  ZINC001579482641   -0.2900
     17 C17       -12.5290    0.3799   63.5691 C.2     1  ZINC001579482641    0.1500
     18 N18       -11.2344    0.4137   63.1710 N.pl3   1  ZINC001579482641   -0.4800
     19 C19       -10.0498    0.4858   64.0300 C.3     1  ZINC001579482641    0.0700
     20 C20       -10.5041    0.2412   59.4349 C.3     1  ZINC001579482641    0.0600
     21 C21       -10.0787   -1.8106   56.6456 C.ar    1  ZINC001579482641    0.2300
     22 C22       -10.9770   -2.9037   57.0917 C.2     1  ZINC001579482641    0.2100
     23 N23       -10.6130   -4.0903   57.5366 N.2     1  ZINC001579482641   -0.2600
     24 N24       -11.6829   -4.7496   57.8218 N.pl3   1  ZINC001579482641   -0.2300
     25 N25       -12.7130   -4.0191   57.5719 N.2     1  ZINC001579482641   -0.0500
     26 N26       -12.3172   -2.8751   57.1265 N.2     1  ZINC001579482641   -0.2000
     27 N27        -9.7670   -1.7003   55.3669 N.ar    1  ZINC001579482641   -0.4000
     28 H28        -7.4747    0.5419   51.4022 H       1  ZINC001579482641    0.0700
     29 H29        -6.0274   -0.4910   51.4854 H       1  ZINC001579482641    0.1100
     30 H30        -7.6074   -1.2036   51.0801 H       1  ZINC001579482641    0.0700
     31 H31        -7.7720    0.9803   55.4395 H       1  ZINC001579482641    0.1600
     32 H32        -8.3237    0.8385   57.8536 H       1  ZINC001579482641    0.1600
     33 H33        -8.4180   -2.3025   59.7421 H       1  ZINC001579482641    0.1000
     34 H34        -7.8698   -0.6250   59.4217 H       1  ZINC001579482641    0.0600
     35 H35        -9.7221   -1.6288   61.6543 H       1  ZINC001579482641    0.1000
     36 H36        -8.2998   -0.5435   61.7915 H       1  ZINC001579482641    0.0800
     37 H37       -12.8860    0.3977   64.5883 H       1  ZINC001579482641    0.2200
     38 H38        -9.7188   -0.5226   64.2779 H       1  ZINC001579482641    0.0800
     39 H39        -9.2519    1.0114   63.5053 H       1  ZINC001579482641    0.0900
     40 H40       -10.2972    1.0225   64.9459 H       1  ZINC001579482641    0.0900
     41 H41       -10.1451    1.0872   58.8488 H       1  ZINC001579482641    0.0600
     42 H42       -11.5911    0.1824   59.3797 H       1  ZINC001579482641    0.1000
     43 H43       -11.7081   -5.6547   58.1698 H       1  ZINC001579482641    0.4800
@<TRIPOS>BOND
     1     1     2    1
     2     1    28    1
     3     1    29    1
     4     1    30    1
     5     2     3    1
     6     3     4    2
     7     3     5    1
     8     5    27   ar
     9     5     6   ar
    10     6     7   ar
    11     6    31    1
    12     7     8   ar
    13     7    32    1
    14     8     9    1
    15     8    21   ar
    16     9    20    1
    17     9    10    1
    18    10    11    1
    19    10    33    1
    20    10    34    1
    21    11    12    1
    22    11    35    1
    23    11    36    1
    24    12    13    1
    25    12    14    1
    26    12    20    1
    27    14    18    1
    28    14    15    2
    29    15    16    1
    30    16    17    2
    31    17    18    1
    32    17    37    1
    33    18    19    1
    34    19    38    1
    35    19    39    1
    36    19    40    1
    37    20    41    1
    38    20    42    1
    39    21    22    1
    40    21    27   ar
    41    22    26    1
    42    22    23    2
    43    23    24    1
    44    24    25    1
    45    24    43    1
    46    25    26    2
@<TRIPOS>SUBSTRUCTURE
     1 ZINC001579482641        1 TEMP              0 ****  ****    0 ROOT


##########                                Name:    ZINC001291841503
##########                DOCK_Rotatable_Bonds:                   7
##########                         Heavy_Atoms:                  28
##########                    Molecular_Weight:             397.544
##########                DOCK_Rotatable_Bonds:                   7
##########                       Formal_Charge:         -0.00999964
##########                     HBond_Acceptors:                   7
##########                        HBond_Donors:                   0
##########                         Heavy_Atoms:                  28
##########                          Grid_Score:          -29.851818
##########                     Grid_vdw_energy:          -28.068777
##########                      Grid_es_energy:           -1.783041
##########           Internal_energy_repulsive:           20.101515

@<TRIPOS>MOLECULE
ZINC001291841503
 55 58 1 0 0
SMALL
USER_CHARGES


@<TRIPOS>ATOM
      1 C1          2.5104    2.7144   48.5787 C.3     1  ZINC001291841503   -0.1500
      2 C2          1.7525    2.3114   47.3120 C.3     1  ZINC001291841503   -0.1100
      3 C3          0.5783    1.4050   47.6869 C.3     1  ZINC001291841503    0.0500
      4 H4          0.9175    0.6421   48.3877 H       1  ZINC001291841503    0.0900
      5 C5         -0.5076    2.2294   48.3288 C.2     1  ZINC001291841503    0.2000
      6 N6         -1.0984    3.2678   47.8086 N.2     1  ZINC001291841503   -0.2700
      7 N7         -1.9757    3.7311   48.6257 N.2     1  ZINC001291841503   -0.3100
      8 C8         -1.9918    3.0072   49.7200 C.2     1  ZINC001291841503    0.3600
      9 N9         -2.8058    3.2018   50.8246 N.3     1  ZINC001291841503   -0.4500
     10 C10        -2.5252    4.4943   51.4640 C.3     1  ZINC001291841503    0.0200
     11 C11        -4.2243    3.0922   50.4592 C.3     1  ZINC001291841503    0.0700
     12 H12        -4.5741    4.0111   49.9888 H       1  ZINC001291841503    0.0800
     13 C13        -4.4629    1.8704   49.5305 C.3     1  ZINC001291841503   -0.1400
     14 C14        -5.9356    1.5272   49.8686 C.3     1  ZINC001291841503    0.0500
     15 O15        -6.0675    1.7852   51.2755 O.3     1  ZINC001291841503   -0.3800
     16 C16        -5.0844    2.7447   51.6933 C.3     1  ZINC001291841503    0.0600
     17 N17        -1.0599    2.0230   49.5625 N.pl3   1  ZINC001291841503   -0.4700
     18 C18        -0.7156    0.9694   50.5205 C.3     1  ZINC001291841503    0.1900
     19 C19         0.4996    1.3849   51.3090 C.2     1  ZINC001291841503   -0.2700
     20 C20         0.8533    2.6391   51.6057 C.2     1  ZINC001291841503    0.0800
     21 N21         1.9629    2.7421   52.3091 N.2     1  ZINC001291841503   -0.4800
     22 C22         2.5648    1.6447   52.6223 C.2     1  ZINC001291841503    0.0500
     23 C23         3.8410    1.5580   53.4192 C.3     1  ZINC001291841503   -0.0800
     24 S24         1.7011    0.3028   52.0089 S.3     1  ZINC001291841503    0.1800
     25 C25         0.0388    0.7426   46.4456 C.ar    1  ZINC001291841503   -0.0900
     26 C26         0.3376    1.2615   45.1996 C.ar    1  ZINC001291841503   -0.0900
     27 C27        -0.1572    0.6539   44.0609 C.ar    1  ZINC001291841503   -0.1200
     28 C28        -0.9505   -0.4731   44.1680 C.ar    1  ZINC001291841503   -0.1200
     29 C29        -1.2486   -0.9927   45.4139 C.ar    1  ZINC001291841503   -0.1200
     30 C30        -0.7501   -0.3875   46.5524 C.ar    1  ZINC001291841503   -0.1100
     31 H31         1.8381    3.2494   49.2495 H       1  ZINC001291841503    0.0500
     32 H32         2.8858    1.8208   49.0772 H       1  ZINC001291841503    0.0500
     33 H33         3.3469    3.3601   48.3116 H       1  ZINC001291841503    0.0600
     34 H34         1.3770    3.2050   46.8136 H       1  ZINC001291841503    0.0800
     35 H35         2.4248    1.7765   46.6412 H       1  ZINC001291841503    0.0800
     36 H36        -2.7938    5.3023   50.7833 H       1  ZINC001291841503    0.0500
     37 H37        -3.1100    4.5812   52.3797 H       1  ZINC001291841503    0.0900
     38 H38        -1.4638    4.5586   51.7033 H       1  ZINC001291841503    0.0700
     39 H39        -4.3548    2.1470   48.4818 H       1  ZINC001291841503    0.0900
     40 H40        -3.7984    1.0457   49.7878 H       1  ZINC001291841503    0.0800
     41 H41        -6.6127    2.1663   49.3016 H       1  ZINC001291841503    0.0700
     42 H42        -6.1380    0.4775   49.6558 H       1  ZINC001291841503    0.0900
     43 H43        -4.4536    2.3134   52.4706 H       1  ZINC001291841503    0.0800
     44 H44        -5.5784    3.6400   52.0708 H       1  ZINC001291841503    0.0700
     45 H45        -1.5523    0.8089   51.2003 H       1  ZINC001291841503    0.1100
     46 H46        -0.5016    0.0456   49.9832 H       1  ZINC001291841503    0.1100
     47 H47         0.2770    3.4978   51.2945 H       1  ZINC001291841503    0.1700
     48 H48         3.6025    1.4859   54.4804 H       1  ZINC001291841503    0.0900
     49 H49         4.4019    0.6753   53.1122 H       1  ZINC001291841503    0.0800
     50 H50         4.4417    2.4501   53.2416 H       1  ZINC001291841503    0.0900
     51 H51         0.9574    2.1420   45.1160 H       1  ZINC001291841503    0.1300
     52 H52         0.0757    1.0598   43.0876 H       1  ZINC001291841503    0.1200
     53 H53        -1.3377   -0.9475   43.2785 H       1  ZINC001291841503    0.1200
     54 H54        -1.8686   -1.8730   45.4975 H       1  ZINC001291841503    0.1200
     55 H55        -0.9830   -0.7934   47.5258 H       1  ZINC001291841503    0.1200
@<TRIPOS>BOND
     1     1     2    1
     2     1    31    1
     3     1    32    1
     4     1    33    1
     5     2     3    1
     6     2    34    1
     7     2    35    1
     8     3     4    1
     9     3     5    1
    10     3    25    1
    11     5    17    1
    12     5     6    2
    13     6     7    1
    14     7     8    2
    15     8     9    1
    16     8    17    1
    17     9    10    1
    18     9    11    1
    19    10    36    1
    20    10    37    1
    21    10    38    1
    22    11    12    1
    23    11    16    1
    24    11    13    1
    25    13    14    1
    26    13    39    1
    27    13    40    1
    28    14    15    1
    29    14    41    1
    30    14    42    1
    31    15    16    1
    32    16    43    1
    33    16    44    1
    34    17    18    1
    35    18    19    1
    36    18    45    1
    37    18    46    1
    38    19    24    1
    39    19    20    2
    40    20    21    1
    41    20    47    1
    42    21    22    2
    43    22    23    1
    44    22    24    1
    45    23    48    1
    46    23    49    1
    47    23    50    1
    48    25    30   ar
    49    25    26   ar
    50    26    27   ar
    51    26    51    1
    52    27    28   ar
    53    27    52    1
    54    28    29   ar
    55    28    53    1
    56    29    30   ar
    57    29    54    1
    58    30    55    1
@<TRIPOS>SUBSTRUCTURE
     1 ZINC001291841503        1 TEMP              0 ****  ****    0 ROOT


##########                                Name:    ZINC000089894387
##########                DOCK_Rotatable_Bonds:                   8
##########                         Heavy_Atoms:                  22
##########                    Molecular_Weight:             326.823
##########                DOCK_Rotatable_Bonds:                   8
##########                       Formal_Charge:          -0.0300003
##########                     HBond_Acceptors:                   6
##########                        HBond_Donors:                   2
##########                         Heavy_Atoms:                  22
##########                          Grid_Score:          -29.822016
##########                     Grid_vdw_energy:          -26.965302
##########                      Grid_es_energy:           -2.856715
##########           Internal_energy_repulsive:           11.608162

@<TRIPOS>MOLECULE
ZINC000089894387
 45 46 1 0 0
SMALL
USER_CHARGES


@<TRIPOS>ATOM
      1 C1         -0.9239   -0.2157   45.1636 C.3     1  ZINC000089894387   -0.1700
      2 C2         -0.1528    0.7460   46.0700 C.3     1  ZINC000089894387    0.1700
      3 H3         -0.2770    1.7661   45.7066 H       1  ZINC000089894387    0.0900
      4 N4         -0.6695    0.6484   47.4374 N.am    1  ZINC000089894387   -0.7400
      5 C5         -1.5490    1.5627   47.8923 C.2     1  ZINC000089894387    0.7100
      6 O6         -1.9125    2.4694   47.1684 O.2     1  ZINC000089894387   -0.5900
      7 N7         -2.0255    1.4720   49.1497 N.am    1  ZINC000089894387   -0.7500
      8 C8         -2.9828    2.4649   49.6437 C.3     1  ZINC000089894387    0.1400
      9 C9         -4.3727    2.1558   49.0836 C.3     1  ZINC000089894387    0.0500
     10 O10        -5.3627    2.8171   49.8740 O.3     1  ZINC000089894387   -0.3100
     11 C11        -5.6139    2.3017   51.1060 C.ar    1  ZINC000089894387    0.1400
     12 C12        -5.1405    2.9472   52.2389 C.ar    1  ZINC000089894387   -0.2100
     13 C13        -5.3969    2.4216   53.4907 C.ar    1  ZINC000089894387   -0.0700
     14 C14        -6.1247    1.2531   53.6155 C.ar    1  ZINC000089894387   -0.1500
     15 C15        -6.5981    0.6064   52.4870 C.ar    1  ZINC000089894387    0.0000
     16 Cl16       -7.5118   -0.8609   52.6471 Cl      1  ZINC000089894387   -0.0600
     17 C17        -6.3492    1.1320   51.2328 C.ar    1  ZINC000089894387   -0.1500
     18 C18         1.3321    0.3777   46.0584 C.3     1  ZINC000089894387   -0.1000
     19 C19         1.9250    0.6828   44.6794 C.3     1  ZINC000089894387   -0.1600
     20 C20         3.4266    0.3855   44.7009 C.3     1  ZINC000089894387    0.0600
     21 O21         4.0501    1.1628   45.7252 O.3     1  ZINC000089894387   -0.3800
     22 C22         3.5690    0.8861   47.0421 C.3     1  ZINC000089894387    0.0600
     23 C23         2.0731    1.2035   47.1146 C.3     1  ZINC000089894387   -0.1500
     24 H24        -0.7997   -1.2358   45.5270 H       1  ZINC000089894387    0.0600
     25 H25        -1.9818    0.0467   45.1719 H       1  ZINC000089894387    0.0600
     26 H26        -0.5395   -0.1431   44.1462 H       1  ZINC000089894387    0.0700
     27 H27        -0.3785   -0.0743   48.0153 H       1  ZINC000089894387    0.3900
     28 H28        -1.7346    0.7493   49.7277 H       1  ZINC000089894387    0.4000
     29 H29        -3.0139    2.4293   50.7326 H       1  ZINC000089894387    0.0800
     30 H30        -2.6741    3.4592   49.3211 H       1  ZINC000089894387    0.0900
     31 H31        -4.4358    2.5073   48.0536 H       1  ZINC000089894387    0.0900
     32 H32        -4.5448    1.0798   49.1115 H       1  ZINC000089894387    0.0700
     33 H33        -4.5715    3.8600   52.1424 H       1  ZINC000089894387    0.1300
     34 H34        -5.0279    2.9240   54.3726 H       1  ZINC000089894387    0.1400
     35 H35        -6.3240    0.8439   54.5949 H       1  ZINC000089894387    0.1400
     36 H36        -6.7189    0.6277   50.3523 H       1  ZINC000089894387    0.1400
     37 H37         1.4463   -0.6836   46.2792 H       1  ZINC000089894387    0.0800
     38 H38         1.4407    0.0584   43.9285 H       1  ZINC000089894387    0.0700
     39 H39         1.7652    1.7338   44.4386 H       1  ZINC000089894387    0.0800
     40 H40         3.5845   -0.6741   44.9018 H       1  ZINC000089894387    0.0500
     41 H41         3.8617    0.6413   43.7348 H       1  ZINC000089894387    0.0900
     42 H42         3.7288   -0.1671   47.2735 H       1  ZINC000089894387    0.0500
     43 H43         4.1068    1.5023   47.7625 H       1  ZINC000089894387    0.1000
     44 H44         1.9163    2.2650   46.9230 H       1  ZINC000089894387    0.0800
     45 H45         1.6948    0.9514   48.1053 H       1  ZINC000089894387    0.0800
@<TRIPOS>BOND
     1     1     2    1
     2     1    24    1
     3     1    25    1
     4     1    26    1
     5     2     3    1
     6     2     4    1
     7     2    18    1
     8     4     5   am
     9     4    27    1
    10     5     6    2
    11     5     7   am
    12     7     8    1
    13     7    28    1
    14     8     9    1
    15     8    29    1
    16     8    30    1
    17     9    10    1
    18     9    31    1
    19     9    32    1
    20    10    11    1
    21    11    17   ar
    22    11    12   ar
    23    12    13   ar
    24    12    33    1
    25    13    14   ar
    26    13    34    1
    27    14    15   ar
    28    14    35    1
    29    15    16    1
    30    15    17   ar
    31    17    36    1
    32    18    23    1
    33    18    19    1
    34    18    37    1
    35    19    20    1
    36    19    38    1
    37    19    39    1
    38    20    21    1
    39    20    40    1
    40    20    41    1
    41    21    22    1
    42    22    23    1
    43    22    42    1
    44    22    43    1
    45    23    44    1
    46    23    45    1
@<TRIPOS>SUBSTRUCTURE
     1 ZINC000089894387        1 TEMP              0 ****  ****    0 ROOT


##########                                Name:    ZINC000599228306
##########                DOCK_Rotatable_Bonds:                   8
##########                         Heavy_Atoms:                  25
##########                    Molecular_Weight:             379.382
##########                DOCK_Rotatable_Bonds:                   8
##########                       Formal_Charge:        -4.09782e-08
##########                     HBond_Acceptors:                  10
##########                        HBond_Donors:                   1
##########                         Heavy_Atoms:                  25
##########                          Grid_Score:          -29.798403
##########                     Grid_vdw_energy:          -28.480104
##########                      Grid_es_energy:           -1.318299
##########           Internal_energy_repulsive:           17.094688

@<TRIPOS>MOLECULE
ZINC000599228306
 44 44 1 0 0
SMALL
USER_CHARGES


@<TRIPOS>ATOM
      1 C1        -13.1621   -5.5820   57.2805 C.3     1  ZINC000599228306    0.0400
      2 O2        -12.1787   -4.6594   57.8190 O.3     1  ZINC000599228306   -0.3500
      3 C3        -12.5833   -3.3929   58.0372 C.2     1  ZINC000599228306    0.5100
      4 O4        -13.7576   -3.1568   58.2400 O.2     1  ZINC000599228306   -0.4800
      5 C5        -11.6000   -2.2926   58.0298 C.ar    1  ZINC000599228306   -0.1500
      6 C6        -11.6488   -1.3146   57.0339 C.ar    1  ZINC000599228306   -0.0100
      7 C7        -10.7254   -0.2878   57.0332 C.ar    1  ZINC000599228306    0.0700
      8 F8        -10.7714    0.6590   56.0704 F       1  ZINC000599228306   -0.1200
      9 C9         -9.7517   -0.2257   58.0179 C.ar    1  ZINC000599228306    0.0100
     10 C10        -9.6969   -1.1899   59.0070 C.ar    1  ZINC000599228306   -0.7100
     11 S11        -8.4551   -1.1003   60.2539 S.o2    1  ZINC000599228306    2.7000
     12 O12        -7.8945   -2.4021   60.3560 O.2     1  ZINC000599228306   -0.9200
     13 O13        -7.6831    0.0582   59.9690 O.2     1  ZINC000599228306   -0.9300
     14 N14        -9.2239   -0.8081   61.6912 N.am    1  ZINC000599228306   -1.1000
     15 C15       -10.0304    0.4035   61.8575 C.3     1  ZINC000599228306    0.1600
     16 H16        -9.8415    1.0825   61.0260 H       1  ZINC000599228306    0.1300
     17 C17       -11.5136    0.0293   61.8836 C.3     1  ZINC000599228306   -0.1700
     18 C18        -9.6600    1.0796   63.1524 C.2     1  ZINC000599228306    0.4700
     19 O19        -9.2920    2.2305   63.1493 O.2     1  ZINC000599228306   -0.4900
     20 O20        -9.7388    0.4034   64.3092 O.3     1  ZINC000599228306   -0.3400
     21 C21        -8.5184    0.2826   65.0866 C.3     1  ZINC000599228306    0.1200
     22 C22        -8.6653   -0.8613   66.0919 C.3     1  ZINC000599228306   -0.1900
     23 C23        -7.3439   -0.0087   64.1505 C.3     1  ZINC000599228306   -0.1400
     24 C24        -8.2602    1.5909   65.8369 C.3     1  ZINC000599228306   -0.1800
     25 C25       -10.6179   -2.2208   59.0236 C.ar    1  ZINC000599228306    0.2500
     26 F26       -10.5634   -3.1622   59.9911 F       1  ZINC000599228306   -0.0900
     27 H27       -12.7072   -6.5643   57.1531 H       1  ZINC000599228306    0.1100
     28 H28       -14.0041   -5.6580   57.9686 H       1  ZINC000599228306    0.0700
     29 H29       -13.5134   -5.2163   56.3156 H       1  ZINC000599228306    0.0700
     30 H30       -12.4067   -1.3614   56.2659 H       1  ZINC000599228306    0.1700
     31 H31        -9.0322    0.5796   58.0122 H       1  ZINC000599228306    0.1800
     32 H32        -9.1403   -1.4394   62.4230 H       1  ZINC000599228306    0.4300
     33 H33       -12.1137    0.9309   62.0073 H       1  ZINC000599228306    0.0900
     34 H34       -11.7815   -0.4597   60.9469 H       1  ZINC000599228306    0.0700
     35 H35       -11.7024   -0.6498   62.7150 H       1  ZINC000599228306    0.0800
     36 H36        -8.8493   -1.7933   65.5575 H       1  ZINC000599228306    0.0600
     37 H37        -7.7493   -0.9519   66.6757 H       1  ZINC000599228306    0.0700
     38 H38        -9.5021   -0.6537   66.7590 H       1  ZINC000599228306    0.0800
     39 H39        -7.2393    0.8062   63.4343 H       1  ZINC000599228306    0.0700
     40 H40        -6.4278   -0.0994   64.7342 H       1  ZINC000599228306    0.0800
     41 H41        -7.5279   -0.9408   63.6160 H       1  ZINC000599228306    0.0700
     42 H42        -9.0969    1.7984   66.5039 H       1  ZINC000599228306    0.0800
     43 H43        -7.3441    1.5002   66.4206 H       1  ZINC000599228306    0.0700
     44 H44        -8.1556    2.4059   65.1207 H       1  ZINC000599228306    0.0600
@<TRIPOS>BOND
     1     1     2    1
     2     1    27    1
     3     1    28    1
     4     1    29    1
     5     2     3    1
     6     3     4    2
     7     3     5    1
     8     5    25   ar
     9     5     6   ar
    10     6     7   ar
    11     6    30    1
    12     7     8    1
    13     7     9   ar
    14     9    10   ar
    15     9    31    1
    16    10    11    1
    17    10    25   ar
    18    11    12    2
    19    11    13    2
    20    11    14   am
    21    14    15    1
    22    14    32    1
    23    15    16    1
    24    15    17    1
    25    15    18    1
    26    17    33    1
    27    17    34    1
    28    17    35    1
    29    18    19    2
    30    18    20    1
    31    20    21    1
    32    21    22    1
    33    21    23    1
    34    21    24    1
    35    22    36    1
    36    22    37    1
    37    22    38    1
    38    23    39    1
    39    23    40    1
    40    23    41    1
    41    24    42    1
    42    24    43    1
    43    24    44    1
    44    25    26    1
@<TRIPOS>SUBSTRUCTURE
     1 ZINC000599228306        1 TEMP              0 ****  ****    0 ROOT


##########                                Name:    ZINC000535362552
##########                DOCK_Rotatable_Bonds:                   5
##########                         Heavy_Atoms:                  26
##########                    Molecular_Weight:             416.228
##########                DOCK_Rotatable_Bonds:                   5
##########                       Formal_Charge:         -0.00999981
##########                     HBond_Acceptors:                   6
##########                        HBond_Donors:                   1
##########                         Heavy_Atoms:                  26
##########                          Grid_Score:          -29.791071
##########                     Grid_vdw_energy:          -29.199507
##########                      Grid_es_energy:           -0.591564
##########           Internal_energy_repulsive:            4.688008

@<TRIPOS>MOLECULE
ZINC000535362552
 40 43 1 0 0
SMALL
USER_CHARGES


@<TRIPOS>ATOM
      1 C1         -4.7596    1.9771   51.2822 C.3     1  ZINC000535362552    0.0300
      2 O2         -5.5144    1.6530   52.4794 O.3     1  ZINC000535362552   -0.3400
      3 C3         -6.4226    0.6609   52.3808 C.2     1  ZINC000535362552    0.5500
      4 O4         -6.5783    0.0822   51.3229 O.2     1  ZINC000535362552   -0.4800
      5 C5         -7.2233    0.2798   53.5507 C.2     1  ZINC000535362552   -0.0100
      6 C6         -7.1219    0.8408   54.7843 C.2     1  ZINC000535362552   -0.0900
      7 C7         -8.1032    0.1544   55.6235 C.ar    1  ZINC000535362552   -0.1300
      8 C8         -8.4833    0.2650   56.9629 C.ar    1  ZINC000535362552   -0.0600
      9 C9         -9.4754   -0.5592   57.4600 C.ar    1  ZINC000535362552    0.1200
     10 N10        -9.8633   -0.4548   58.8024 N.am    1  ZINC000535362552   -0.6700
     11 C11        -9.0001   -0.7909   59.7813 C.2     1  ZINC000535362552    0.5200
     12 O12        -7.8874   -1.1837   59.5004 O.2     1  ZINC000535362552   -0.5000
     13 C13        -9.4172   -0.6787   61.2250 C.3     1  ZINC000535362552   -0.1000
     14 H14        -8.8970   -1.4154   61.8373 H       1  ZINC000535362552    0.1300
     15 C15        -9.1777    0.7530   61.7601 C.3     1  ZINC000535362552    0.0600
     16 O16       -10.2985    0.9568   62.6371 O.3     1  ZINC000535362552   -0.2900
     17 C17       -11.3468    0.2011   62.2083 C.ar    1  ZINC000535362552    0.1300
     18 C18       -12.7053    0.3164   62.4911 C.ar    1  ZINC000535362552   -0.1300
     19 C19       -13.6065   -0.5761   61.9482 C.ar    1  ZINC000535362552   -0.0500
     20 C20       -13.1694   -1.5932   61.1189 C.ar    1  ZINC000535362552   -0.1200
     21 Br21      -14.4092   -2.8164   60.3825 Br      1  ZINC000535362552   -0.0400
     22 C22       -11.8204   -1.7120   60.8298 C.ar    1  ZINC000535362552   -0.0100
     23 C23       -10.9204   -0.8201   61.3673 C.ar    1  ZINC000535362552   -0.1600
     24 C24       -10.0911   -1.4937   56.6290 C.ar    1  ZINC000535362552   -0.0900
     25 C25        -9.7221   -1.6097   55.3073 C.ar    1  ZINC000535362552   -0.0900
     26 C26        -8.7271   -0.7903   54.7870 C.ar    1  ZINC000535362552    0.0700
     27 O27        -8.1754   -0.6765   53.5621 O.3     1  ZINC000535362552   -0.1700
     28 H28        -5.4451    2.2851   50.4927 H       1  ZINC000535362552    0.0700
     29 H29        -4.0663    2.7898   51.4988 H       1  ZINC000535362552    0.1100
     30 H30        -4.2008    1.0999   50.9565 H       1  ZINC000535362552    0.0700
     31 H31        -6.4516    1.6328   55.0844 H       1  ZINC000535362552    0.1800
     32 H32        -8.0052    0.9892   57.6058 H       1  ZINC000535362552    0.1400
     33 H33       -10.7531   -0.1406   59.0270 H       1  ZINC000535362552    0.4100
     34 H34        -8.2400    0.8068   62.3130 H       1  ZINC000535362552    0.1200
     35 H35        -9.1885    1.4767   60.9449 H       1  ZINC000535362552    0.0900
     36 H36       -13.0549    1.1077   63.1378 H       1  ZINC000535362552    0.1400
     37 H37       -14.6587   -0.4803   62.1721 H       1  ZINC000535362552    0.1400
     38 H38       -11.4744   -2.5045   60.1829 H       1  ZINC000535362552    0.1400
     39 H39       -10.8654   -2.1336   57.0259 H       1  ZINC000535362552    0.1500
     40 H40       -10.2065   -2.3382   54.6741 H       1  ZINC000535362552    0.1500
@<TRIPOS>BOND
     1     1     2    1
     2     1    28    1
     3     1    29    1
     4     1    30    1
     5     2     3    1
     6     3     4    2
     7     3     5    1
     8     5    27    1
     9     5     6    2
    10     6     7    1
    11     6    31    1
    12     7    26   ar
    13     7     8   ar
    14     8     9   ar
    15     8    32    1
    16     9    10    1
    17     9    24   ar
    18    10    11   am
    19    10    33    1
    20    11    12    2
    21    11    13    1
    22    13    14    1
    23    13    23    1
    24    13    15    1
    25    15    16    1
    26    15    34    1
    27    15    35    1
    28    16    17    1
    29    17    23   ar
    30    17    18   ar
    31    18    19   ar
    32    18    36    1
    33    19    20   ar
    34    19    37    1
    35    20    21    1
    36    20    22   ar
    37    22    23   ar
    38    22    38    1
    39    24    25   ar
    40    24    39    1
    41    25    26   ar
    42    25    40    1
    43    26    27    1
@<TRIPOS>SUBSTRUCTURE
     1 ZINC000535362552        1 TEMP              0 ****  ****    0 ROOT


##########                                Name:    ZINC000673213454
##########                DOCK_Rotatable_Bonds:                   7
##########                         Heavy_Atoms:                  26
##########                    Molecular_Weight:             360.453
##########                DOCK_Rotatable_Bonds:                   7
##########                       Formal_Charge:          -0.0100001
##########                     HBond_Acceptors:                   6
##########                        HBond_Donors:                   1
##########                         Heavy_Atoms:                  26
##########                          Grid_Score:          -29.784128
##########                     Grid_vdw_energy:          -29.576096
##########                      Grid_es_energy:           -0.208032
##########           Internal_energy_repulsive:           15.567423

@<TRIPOS>MOLECULE
ZINC000673213454
 54 56 1 0 0
SMALL
USER_CHARGES


@<TRIPOS>ATOM
      1 C1         -8.6698    0.8155   56.5165 C.3     1  ZINC000673213454   -0.1700
      2 C2         -9.2618    0.2858   55.2088 C.3     1  ZINC000673213454    0.1400
      3 H3        -10.1125    0.9026   54.9190 H       1  ZINC000673213454    0.0900
      4 C4         -9.7236   -1.1594   55.4065 C.3     1  ZINC000673213454   -0.1200
      5 C5        -11.1401   -1.1676   55.9846 C.3     1  ZINC000673213454   -0.1300
      6 H6        -11.1843   -0.5657   56.8922 H       1  ZINC000673213454    0.0800
      7 C7        -11.5992   -2.6177   56.2730 C.3     1  ZINC000673213454   -0.1500
      8 C8        -13.0780   -2.5882   55.8099 C.3     1  ZINC000673213454    0.0500
      9 O9        -13.0497   -1.7339   54.6464 O.3     1  ZINC000673213454   -0.3800
     10 C10       -12.1506   -0.6483   54.9434 C.3     1  ZINC000673213454    0.0500
     11 N11        -8.2432    0.3335   54.1570 N.am    1  ZINC000673213454   -0.6900
     12 C12        -8.6124    0.3331   52.8608 C.2     1  ZINC000673213454    0.5100
     13 O13        -9.7887    0.2947   52.5649 O.2     1  ZINC000673213454   -0.5100
     14 C14        -7.5732    0.3799   51.7878 C.2     1  ZINC000673213454    0.5000
     15 O15        -6.9638   -0.6261   51.4889 O.2     1  ZINC000673213454   -0.5200
     16 N16        -7.3128    1.5394   51.1520 N.am    1  ZINC000673213454   -0.5800
     17 C17        -8.0698    2.7455   51.5370 C.3     1  ZINC000673213454    0.1100
     18 C18        -7.1519    3.9749   51.6019 C.3     1  ZINC000673213454   -0.1700
     19 C19        -5.8240    3.5851   52.2193 C.3     1  ZINC000673213454    0.0800
     20 O20        -4.9314    3.2037   51.1807 O.3     1  ZINC000673213454   -0.3800
     21 C21        -4.9238    1.8961   50.7391 C.3     1  ZINC000673213454    0.1500
     22 H22        -4.7309    1.2298   51.5799 H       1  ZINC000673213454    0.0600
     23 C23        -3.8437    1.7224   49.7026 C.ar    1  ZINC000673213454   -0.0800
     24 C24        -2.6865    1.0356   50.0185 C.ar    1  ZINC000673213454   -0.0900
     25 C25        -1.6958    0.8762   49.0677 C.ar    1  ZINC000673213454   -0.1300
     26 C26        -1.8626    1.4035   47.8008 C.ar    1  ZINC000673213454   -0.1200
     27 C27        -3.0202    2.0896   47.4845 C.ar    1  ZINC000673213454   -0.1300
     28 C28        -4.0127    2.2452   48.4341 C.ar    1  ZINC000673213454   -0.0900
     29 C29        -6.2942    1.5554   50.1184 C.3     1  ZINC000673213454    0.0700
     30 H30        -7.8192    0.1987   56.8063 H       1  ZINC000673213454    0.0600
     31 H31        -8.3409    1.8451   56.3757 H       1  ZINC000673213454    0.0600
     32 H32        -9.4277    0.7800   57.2991 H       1  ZINC000673213454    0.0700
     33 H33        -9.7197   -1.6764   54.4469 H       1  ZINC000673213454    0.0800
     34 H34        -9.0472   -1.6660   56.0949 H       1  ZINC000673213454    0.0900
     35 H35       -11.0219   -3.3324   55.6864 H       1  ZINC000673213454    0.0800
     36 H36       -11.5292   -2.8434   57.3370 H       1  ZINC000673213454    0.0800
     37 H37       -13.4166   -3.5893   55.5429 H       1  ZINC000673213454    0.0900
     38 H38       -13.7144   -2.1606   56.5847 H       1  ZINC000673213454    0.0600
     39 H39       -12.7087    0.1940   55.3521 H       1  ZINC000673213454    0.0600
     40 H40       -11.6259   -0.3434   54.0380 H       1  ZINC000673213454    0.0900
     41 H41        -7.3030    0.3654   54.3934 H       1  ZINC000673213454    0.4100
     42 H42        -8.8558    2.9240   50.8032 H       1  ZINC000673213454    0.0800
     43 H43        -8.5240    2.5858   52.5149 H       1  ZINC000673213454    0.0900
     44 H44        -6.9857    4.3574   50.5948 H       1  ZINC000673213454    0.0800
     45 H45        -7.6222    4.7474   52.2103 H       1  ZINC000673213454    0.0900
     46 H46        -5.4104    4.4346   52.7630 H       1  ZINC000673213454    0.1000
     47 H47        -5.9700    2.7477   52.9016 H       1  ZINC000673213454    0.0500
     48 H48        -2.5562    0.6236   51.0083 H       1  ZINC000673213454    0.1300
     49 H49        -0.7913    0.3402   49.3148 H       1  ZINC000673213454    0.1200
     50 H50        -1.0883    1.2797   47.0582 H       1  ZINC000673213454    0.1200
     51 H51        -3.1504    2.5018   46.4948 H       1  ZINC000673213454    0.1200
     52 H52        -4.9172    2.7811   48.1870 H       1  ZINC000673213454    0.1300
     53 H53        -6.2448    0.5747   49.6452 H       1  ZINC000673213454    0.1200
     54 H54        -6.5512    2.3064   49.3713 H       1  ZINC000673213454    0.0800
@<TRIPOS>BOND
     1     1     2    1
     2     1    30    1
     3     1    31    1
     4     1    32    1
     5     2     3    1
     6     2     4    1
     7     2    11    1
     8     4     5    1
     9     4    33    1
    10     4    34    1
    11     5     6    1
    12     5    10    1
    13     5     7    1
    14     7     8    1
    15     7    35    1
    16     7    36    1
    17     8     9    1
    18     8    37    1
    19     8    38    1
    20     9    10    1
    21    10    39    1
    22    10    40    1
    23    11    12   am
    24    11    41    1
    25    12    13    2
    26    12    14    1
    27    14    15    2
    28    14    16   am
    29    16    29    1
    30    16    17    1
    31    17    18    1
    32    17    42    1
    33    17    43    1
    34    18    19    1
    35    18    44    1
    36    18    45    1
    37    19    20    1
    38    19    46    1
    39    19    47    1
    40    20    21    1
    41    21    22    1
    42    21    23    1
    43    21    29    1
    44    23    28   ar
    45    23    24   ar
    46    24    25   ar
    47    24    48    1
    48    25    26   ar
    49    25    49    1
    50    26    27   ar
    51    26    50    1
    52    27    28   ar
    53    27    51    1
    54    28    52    1
    55    29    53    1
    56    29    54    1
@<TRIPOS>SUBSTRUCTURE
     1 ZINC000673213454        1 TEMP              0 ****  ****    0 ROOT


##########                                Name:    ZINC000416583757
##########                DOCK_Rotatable_Bonds:                   7
##########                         Heavy_Atoms:                  20
##########                    Molecular_Weight:             380.693
##########                DOCK_Rotatable_Bonds:                   7
##########                       Formal_Charge:         1.04308e-07
##########                     HBond_Acceptors:                   7
##########                        HBond_Donors:                   1
##########                         Heavy_Atoms:                  20
##########                          Grid_Score:          -29.750711
##########                     Grid_vdw_energy:          -29.535381
##########                      Grid_es_energy:           -0.215331
##########           Internal_energy_repulsive:            7.207977

@<TRIPOS>MOLECULE
ZINC000416583757
 35 35 1 0 0
SMALL
USER_CHARGES


@<TRIPOS>ATOM
      1 C1         -7.5218    1.1736   54.5250 C.3     1  ZINC000416583757   -0.1500
      2 C2         -7.8463    0.0017   53.5965 C.3     1  ZINC000416583757   -0.0200
      3 H3         -6.9667   -0.6334   53.4920 H       1  ZINC000416583757    0.1200
      4 C4         -8.9537   -0.7834   54.1660 C.1     1  ZINC000416583757    0.2100
      5 N5         -9.8081   -1.3892   54.6056 N.1     1  ZINC000416583757   -0.4200
      6 C6         -8.2547    0.5373   52.2227 C.3     1  ZINC000416583757    0.1300
      7 N7         -7.0939    0.5244   51.3290 N.am    1  ZINC000416583757   -1.0100
      8 C8         -6.5167   -0.7506   50.8964 C.3     1  ZINC000416583757    0.0800
      9 S9         -6.4342    1.9512   50.8079 S.o2    1  ZINC000416583757    2.7800
     10 O10        -7.4098    2.5642   49.9761 O.2     1  ZINC000416583757   -0.9700
     11 O11        -5.8848    2.5823   51.9563 O.2     1  ZINC000416583757   -0.9700
     12 N12        -5.1556    1.5706   49.8267 N.am    1  ZINC000416583757   -1.1300
     13 C13        -4.3645    2.6370   49.2077 C.3     1  ZINC000416583757    0.1600
     14 C14        -2.9969    2.1095   48.8580 C.ar    1  ZINC000416583757   -0.0800
     15 C15        -2.0221    2.0167   49.8333 C.ar    1  ZINC000416583757   -0.0800
     16 C16        -0.7663    1.5320   49.5127 C.ar    1  ZINC000416583757   -0.0300
     17 Cl17        0.4579    1.4148   50.7379 Cl      1  ZINC000416583757   -0.0500
     18 C18        -0.4869    1.1404   48.2160 C.ar    1  ZINC000416583757   -0.0700
     19 C19        -1.4629    1.2335   47.2403 C.ar    1  ZINC000416583757   -0.0800
     20 Br20       -1.0817    0.6984   45.4671 Br      1  ZINC000416583757   -0.0300
     21 C21        -2.7194    1.7133   47.5630 C.ar    1  ZINC000416583757   -0.0700
     22 H22        -7.3496    0.8005   55.5345 H       1  ZINC000416583757    0.0700
     23 H23        -6.6266    1.6828   54.1681 H       1  ZINC000416583757    0.0800
     24 H24        -8.3582    1.8726   54.5338 H       1  ZINC000416583757    0.0700
     25 H25        -9.0410   -0.0923   51.8062 H       1  ZINC000416583757    0.0900
     26 H26        -8.6228    1.5581   52.3255 H       1  ZINC000416583757    0.1000
     27 H27        -7.0005   -1.0745   49.9748 H       1  ZINC000416583757    0.0700
     28 H28        -5.4483   -0.6250   50.7211 H       1  ZINC000416583757    0.0800
     29 H29        -6.6719   -1.5013   51.6713 H       1  ZINC000416583757    0.0800
     30 H30        -4.9304    0.6417   49.6619 H       1  ZINC000416583757    0.4200
     31 H31        -4.8639    2.9809   48.3019 H       1  ZINC000416583757    0.0800
     32 H32        -4.2657    3.4682   49.9059 H       1  ZINC000416583757    0.1000
     33 H33        -2.2405    2.3229   50.8457 H       1  ZINC000416583757    0.1500
     34 H34         0.4933    0.7623   47.9651 H       1  ZINC000416583757    0.1500
     35 H35        -3.4816    1.7860   46.8011 H       1  ZINC000416583757    0.1400
@<TRIPOS>BOND
     1     1     2    1
     2     1    22    1
     3     1    23    1
     4     1    24    1
     5     2     3    1
     6     2     4    1
     7     2     6    1
     8     4     5    3
     9     6     7    1
    10     6    25    1
    11     6    26    1
    12     7     8    1
    13     7     9   am
    14     8    27    1
    15     8    28    1
    16     8    29    1
    17     9    10    2
    18     9    11    2
    19     9    12   am
    20    12    13    1
    21    12    30    1
    22    13    14    1
    23    13    31    1
    24    13    32    1
    25    14    21   ar
    26    14    15   ar
    27    15    16   ar
    28    15    33    1
    29    16    17    1
    30    16    18   ar
    31    18    19   ar
    32    18    34    1
    33    19    20    1
    34    19    21   ar
    35    21    35    1
@<TRIPOS>SUBSTRUCTURE
     1 ZINC000416583757        1 TEMP              0 ****  ****    0 ROOT


##########                                Name:    ZINC001296589646
##########                DOCK_Rotatable_Bonds:                   8
##########                         Heavy_Atoms:                  29
##########                    Molecular_Weight:             398.548
##########                DOCK_Rotatable_Bonds:                   8
##########                       Formal_Charge:          -0.0200008
##########                     HBond_Acceptors:                   6
##########                        HBond_Donors:                   0
##########                         Heavy_Atoms:                  29
##########                          Grid_Score:          -29.716457
##########                     Grid_vdw_energy:          -29.289890
##########                      Grid_es_energy:           -0.426567
##########           Internal_energy_repulsive:           21.647362

@<TRIPOS>MOLECULE
ZINC001296589646
 63 66 1 0 0
SMALL
USER_CHARGES


@<TRIPOS>ATOM
      1 C1        -13.4956   -5.6852   57.0683 C.3     1  ZINC001296589646   -0.1500
      2 C2        -13.4405   -4.1575   57.1322 C.3     1  ZINC001296589646    0.0500
      3 O3        -13.7073   -3.7267   58.4684 O.3     1  ZINC001296589646   -0.3600
      4 C4        -14.0061   -2.3339   58.5813 C.3     1  ZINC001296589646    0.1800
      5 C5        -13.1225   -1.5226   57.6690 C.2     1  ZINC001296589646    0.1500
      6 N6        -13.4964   -0.8924   56.5917 N.2     1  ZINC001296589646   -0.2600
      7 N7        -12.4890   -0.3020   56.0546 N.2     1  ZINC001296589646   -0.3200
      8 C8        -11.4096   -0.5256   56.7663 C.2     1  ZINC001296589646    0.3600
      9 N9        -10.1343   -0.0532   56.4995 N.3     1  ZINC001296589646   -0.4300
     10 C10        -9.4781   -0.8610   55.4399 C.3     1  ZINC001296589646    0.0300
     11 C11        -8.3618    0.0782   54.9182 C.3     1  ZINC001296589646   -0.1200
     12 C12        -9.0321    1.4705   54.9637 C.3     1  ZINC001296589646   -0.1000
     13 H13        -9.4266    1.7328   53.9821 H       1  ZINC001296589646    0.0800
     14 C14        -8.0298    2.5274   55.4320 C.3     1  ZINC001296589646   -0.1400
     15 C15       -10.1797    1.3313   55.9812 C.3     1  ZINC001296589646    0.0500
     16 N16       -11.7810   -1.3064   57.8219 N.pl3   1  ZINC001296589646   -0.4600
     17 C17       -10.9193   -1.8159   58.8916 C.3     1  ZINC001296589646    0.1000
     18 C18       -10.6976   -0.7182   59.9341 C.3     1  ZINC001296589646   -0.1300
     19 C19        -9.3033   -0.8698   60.5456 C.3     1  ZINC001296589646   -0.0500
     20 H20        -9.0839   -1.9273   60.6921 H       1  ZINC001296589646    0.0800
     21 C21        -8.2640   -0.2590   59.6035 C.3     1  ZINC001296589646   -0.1500
     22 C22        -9.2572   -0.1587   61.8734 C.ar    1  ZINC001296589646   -0.0800
     23 C23        -8.4447   -0.6356   62.8851 C.ar    1  ZINC001296589646   -0.1100
     24 C24        -8.4024    0.0167   64.1031 C.ar    1  ZINC001296589646   -0.1200
     25 C25        -9.1723    1.1461   64.3094 C.ar    1  ZINC001296589646   -0.1200
     26 C26        -9.9841    1.6235   63.2975 C.ar    1  ZINC001296589646   -0.1200
     27 C27       -10.0231    0.9737   62.0781 C.ar    1  ZINC001296589646   -0.1200
     28 C28       -13.8735   -1.8577   60.0536 C.3     1  ZINC001296589646   -0.1400
     29 C29       -15.2649   -2.2453   60.6145 C.3     1  ZINC001296589646    0.0600
     30 O30       -16.1844   -2.0012   59.5383 O.3     1  ZINC001296589646   -0.3700
     31 C31       -15.4970   -2.0658   58.2833 C.3     1  ZINC001296589646    0.0400
     32 H32       -12.6908   -6.1034   57.6728 H       1  ZINC001296589646    0.0600
     33 H33       -14.4556   -6.0304   57.4521 H       1  ZINC001296589646    0.0700
     34 H34       -13.3797   -6.0100   56.0342 H       1  ZINC001296589646    0.0700
     35 H35       -12.4497   -3.8167   56.8317 H       1  ZINC001296589646    0.0500
     36 H36       -14.1884   -3.7384   56.4591 H       1  ZINC001296589646    0.0600
     37 H37        -9.0501   -1.7713   55.8597 H       1  ZINC001296589646    0.0900
     38 H38       -10.1843   -1.0982   54.6442 H       1  ZINC001296589646    0.0600
     39 H39        -7.4929    0.0467   55.5754 H       1  ZINC001296589646    0.0800
     40 H40        -8.0840   -0.1829   53.8970 H       1  ZINC001296589646    0.0800
     41 H41        -7.1999    2.5786   54.7271 H       1  ZINC001296589646    0.0600
     42 H42        -8.5229    3.4980   55.4838 H       1  ZINC001296589646    0.0600
     43 H43        -7.6524    2.2584   56.4186 H       1  ZINC001296589646    0.0600
     44 H44       -11.1356    1.5127   55.4898 H       1  ZINC001296589646    0.0800
     45 H45       -10.0392    2.0386   56.7985 H       1  ZINC001296589646    0.0900
     46 H46       -11.3958   -2.6748   59.3640 H       1  ZINC001296589646    0.1100
     47 H47        -9.9595   -2.1179   58.4723 H       1  ZINC001296589646    0.1000
     48 H48       -10.7808    0.2583   59.4570 H       1  ZINC001296589646    0.0800
     49 H49       -11.4497   -0.8047   60.7183 H       1  ZINC001296589646    0.0700
     50 H50        -7.2707   -0.3669   60.0392 H       1  ZINC001296589646    0.0600
     51 H51        -8.2974   -0.7734   58.6432 H       1  ZINC001296589646    0.0600
     52 H52        -8.4835    0.7986   59.4571 H       1  ZINC001296589646    0.0600
     53 H53        -7.8431   -1.5180   62.7239 H       1  ZINC001296589646    0.1200
     54 H54        -7.7681   -0.3563   64.8937 H       1  ZINC001296589646    0.1200
     55 H55        -9.1397    1.6553   65.2613 H       1  ZINC001296589646    0.1200
     56 H56       -10.5858    2.5057   63.4589 H       1  ZINC001296589646    0.1200
     57 H57       -10.6573    1.3467   61.2875 H       1  ZINC001296589646    0.1200
     58 H58       -13.0781   -2.3951   60.5702 H       1  ZINC001296589646    0.1000
     59 H59       -13.7152   -0.7805   60.1054 H       1  ZINC001296589646    0.1000
     60 H60       -15.2803   -3.2989   60.8936 H       1  ZINC001296589646    0.0700
     61 H61       -15.5136   -1.6219   61.4733 H       1  ZINC001296589646    0.0900
     62 H62       -15.6038   -1.1190   57.7539 H       1  ZINC001296589646    0.1000
     63 H63       -15.9049   -2.8764   57.6795 H       1  ZINC001296589646    0.0800
@<TRIPOS>BOND
     1     1     2    1
     2     1    32    1
     3     1    33    1
     4     1    34    1
     5     2     3    1
     6     2    35    1
     7     2    36    1
     8     3     4    1
     9     4    31    1
    10     4     5    1
    11     4    28    1
    12     5    16    1
    13     5     6    2
    14     6     7    1
    15     7     8    2
    16     8     9    1
    17     8    16    1
    18     9    15    1
    19     9    10    1
    20    10    11    1
    21    10    37    1
    22    10    38    1
    23    11    12    1
    24    11    39    1
    25    11    40    1
    26    12    13    1
    27    12    14    1
    28    12    15    1
    29    14    41    1
    30    14    42    1
    31    14    43    1
    32    15    44    1
    33    15    45    1
    34    16    17    1
    35    17    18    1
    36    17    46    1
    37    17    47    1
    38    18    19    1
    39    18    48    1
    40    18    49    1
    41    19    20    1
    42    19    21    1
    43    19    22    1
    44    21    50    1
    45    21    51    1
    46    21    52    1
    47    22    27   ar
    48    22    23   ar
    49    23    24   ar
    50    23    53    1
    51    24    25   ar
    52    24    54    1
    53    25    26   ar
    54    25    55    1
    55    26    27   ar
    56    26    56    1
    57    27    57    1
    58    28    29    1
    59    28    58    1
    60    28    59    1
    61    29    30    1
    62    29    60    1
    63    29    61    1
    64    30    31    1
    65    31    62    1
    66    31    63    1
@<TRIPOS>SUBSTRUCTURE
     1 ZINC001296589646        1 TEMP              0 ****  ****    0 ROOT


##########                                Name:    ZINC000502834785
##########                DOCK_Rotatable_Bonds:                   9
##########                         Heavy_Atoms:                  26
##########                    Molecular_Weight:             356.468
##########                DOCK_Rotatable_Bonds:                   9
##########                       Formal_Charge:           0.0199998
##########                     HBond_Acceptors:                   6
##########                        HBond_Donors:                   2
##########                         Heavy_Atoms:                  26
##########                          Grid_Score:          -29.704399
##########                     Grid_vdw_energy:          -29.619272
##########                      Grid_es_energy:           -0.085126
##########           Internal_energy_repulsive:           21.941223

@<TRIPOS>MOLECULE
ZINC000502834785
 54 56 1 0 0
SMALL
USER_CHARGES


@<TRIPOS>ATOM
      1 C1         -4.5586    3.2895   49.5722 C.3     1  ZINC000502834785   -0.1800
      2 C2         -4.3261    2.8268   51.0120 C.3     1  ZINC000502834785    0.0800
      3 C3         -3.2826    3.7281   51.6751 C.3     1  ZINC000502834785   -0.1500
      4 O4         -5.5531    2.9025   51.7406 O.3     1  ZINC000502834785   -0.3800
      5 C5         -5.6313    1.9967   52.8430 C.3     1  ZINC000502834785    0.1000
      6 C6         -6.9916    1.3487   52.8653 C.ar    1  ZINC000502834785   -0.0800
      7 C7         -8.0385    1.9619   53.5276 C.ar    1  ZINC000502834785   -0.1000
      8 C8         -9.2864    1.3675   53.5480 C.ar    1  ZINC000502834785   -0.1000
      9 C9         -9.4874    0.1601   52.9056 C.ar    1  ZINC000502834785   -0.1000
     10 C10       -10.8477   -0.4882   52.9283 C.3     1  ZINC000502834785    0.1600
     11 N11       -10.9761   -1.3119   54.1329 N.am    1  ZINC000502834785   -0.7300
     12 C12       -12.1258   -1.3029   54.8360 C.2     1  ZINC000502834785    0.5100
     13 O13       -13.0547   -0.6140   54.4707 O.2     1  ZINC000502834785   -0.5200
     14 C14       -12.2572   -2.1489   56.0763 C.3     1  ZINC000502834785    0.0300
     15 N15       -13.6323   -2.6551   56.1803 N.3     1  ZINC000502834785   -0.5000
     16 C16       -14.5672   -1.5750   56.5617 C.3     1  ZINC000502834785    0.0500
     17 C17       -15.6399   -2.2707   57.4361 C.3     1  ZINC000502834785   -0.1300
     18 C18       -14.7855   -3.3026   58.2185 C.3     1  ZINC000502834785   -0.1300
     19 C19       -13.7247   -3.7318   57.1832 C.3     1  ZINC000502834785    0.1500
     20 H20       -14.0303   -4.6612   56.7026 H       1  ZINC000502834785    0.1100
     21 C21       -12.3926   -3.9201   57.8622 C.2     1  ZINC000502834785    0.0600
     22 N22       -11.5192   -4.8561   57.5920 N.2     1  ZINC000502834785   -0.2900
     23 N23       -10.4177   -4.6851   58.4404 N.pl3   1  ZINC000502834785   -0.4800
     24 C24       -10.6612   -3.6159   59.2268 C.2     1  ZINC000502834785    0.0600
     25 C25       -11.8736   -3.1208   58.8860 C.2     1  ZINC000502834785   -0.2600
     26 C26        -8.4408   -0.4525   52.2422 C.ar    1  ZINC000502834785   -0.1000
     27 C27        -7.1939    0.1438   52.2185 C.ar    1  ZINC000502834785   -0.1000
     28 H28        -5.3020    2.6473   49.0998 H       1  ZINC000502834785    0.0600
     29 H29        -4.9167    4.3190   49.5748 H       1  ZINC000502834785    0.0600
     30 H30        -3.6227    3.2317   49.0164 H       1  ZINC000502834785    0.0700
     31 H31        -3.9680    1.7973   51.0094 H       1  ZINC000502834785    0.0600
     32 H32        -3.6408    4.7576   51.6776 H       1  ZINC000502834785    0.0600
     33 H33        -3.1170    3.3985   52.7007 H       1  ZINC000502834785    0.0600
     34 H34        -2.3468    3.6703   51.1193 H       1  ZINC000502834785    0.0700
     35 H35        -4.8647    1.2289   52.7375 H       1  ZINC000502834785    0.0600
     36 H36        -5.4733    2.5422   53.7734 H       1  ZINC000502834785    0.0600
     37 H37        -7.8815    2.9052   54.0295 H       1  ZINC000502834785    0.1300
     38 H38       -10.1042    1.8462   54.0661 H       1  ZINC000502834785    0.1300
     39 H39       -11.6178    0.2832   52.9319 H       1  ZINC000502834785    0.0800
     40 H40       -10.9659   -1.1156   52.0449 H       1  ZINC000502834785    0.0800
     41 H41       -10.2335   -1.8639   54.4245 H       1  ZINC000502834785    0.4000
     42 H42       -11.5645   -2.9884   56.0185 H       1  ZINC000502834785    0.1000
     43 H43       -12.0248   -1.5457   56.9538 H       1  ZINC000502834785    0.0800
     44 H44       -14.0473   -0.8089   57.1368 H       1  ZINC000502834785    0.0400
     45 H45       -15.0255   -1.1388   55.6741 H       1  ZINC000502834785    0.1000
     46 H46       -16.1118   -1.5599   58.1145 H       1  ZINC000502834785    0.0800
     47 H47       -16.3848   -2.7703   56.8166 H       1  ZINC000502834785    0.0800
     48 H48       -14.3136   -2.8357   59.0830 H       1  ZINC000502834785    0.0800
     49 H49       -15.3935   -4.1544   58.5231 H       1  ZINC000502834785    0.0800
     50 H50        -9.6206   -5.2376   58.4591 H       1  ZINC000502834785    0.4400
     51 H51       -10.0043   -3.2230   59.9886 H       1  ZINC000502834785    0.1800
     52 H52       -12.3577   -2.2637   59.3304 H       1  ZINC000502834785    0.1500
     53 H53        -8.5979   -1.3957   51.7399 H       1  ZINC000502834785    0.1300
     54 H54        -6.3762   -0.3347   51.7001 H       1  ZINC000502834785    0.1200
@<TRIPOS>BOND
     1     1     2    1
     2     1    28    1
     3     1    29    1
     4     1    30    1
     5     2     3    1
     6     2     4    1
     7     2    31    1
     8     3    32    1
     9     3    33    1
    10     3    34    1
    11     4     5    1
    12     5     6    1
    13     5    35    1
    14     5    36    1
    15     6    27   ar
    16     6     7   ar
    17     7     8   ar
    18     7    37    1
    19     8     9   ar
    20     8    38    1
    21     9    10    1
    22     9    26   ar
    23    10    11    1
    24    10    39    1
    25    10    40    1
    26    11    12   am
    27    11    41    1
    28    12    13    2
    29    12    14    1
    30    14    15    1
    31    14    42    1
    32    14    43    1
    33    15    19    1
    34    15    16    1
    35    16    17    1
    36    16    44    1
    37    16    45    1
    38    17    18    1
    39    17    46    1
    40    17    47    1
    41    18    19    1
    42    18    48    1
    43    18    49    1
    44    19    20    1
    45    19    21    1
    46    21    25    1
    47    21    22    2
    48    22    23    1
    49    23    24    1
    50    23    50    1
    51    24    25    2
    52    24    51    1
    53    25    52    1
    54    26    27   ar
    55    26    53    1
    56    27    54    1
@<TRIPOS>SUBSTRUCTURE
     1 ZINC000502834785        1 TEMP              0 ****  ****    0 ROOT


##########                                Name:    ZINC000898967786
##########                DOCK_Rotatable_Bonds:                   5
##########                         Heavy_Atoms:                  25
##########                    Molecular_Weight:             356.448
##########                DOCK_Rotatable_Bonds:                   5
##########                       Formal_Charge:        -2.38419e-07
##########                     HBond_Acceptors:                   7
##########                        HBond_Donors:                   1
##########                         Heavy_Atoms:                  25
##########                          Grid_Score:          -29.677767
##########                     Grid_vdw_energy:          -27.888861
##########                      Grid_es_energy:           -1.788907
##########           Internal_energy_repulsive:           14.721904

@<TRIPOS>MOLECULE
ZINC000898967786
 45 48 1 0 0
SMALL
USER_CHARGES


@<TRIPOS>ATOM
      1 C1          0.9646    4.1646   47.8114 C.3     1  ZINC000898967786   -0.0800
      2 C2          0.3918    2.8941   47.2376 C.2     1  ZINC000898967786    0.0900
      3 C3         -0.1267    1.8707   47.9513 C.2     1  ZINC000898967786   -0.1000
      4 C4         -0.2365    1.7921   49.4521 C.3     1  ZINC000898967786    0.2200
      5 N5         -1.6456    1.8771   49.8438 N.am    1  ZINC000898967786   -0.7400
      6 C6         -2.2310    3.0814   49.9972 C.2     1  ZINC000898967786    0.7100
      7 O7         -1.5896    4.0973   49.8103 O.2     1  ZINC000898967786   -0.5800
      8 N8         -3.5274    3.1596   50.3575 N.am    1  ZINC000898967786   -0.6300
      9 C9         -4.1880    4.4629   50.5310 C.3     1  ZINC000898967786    0.0900
     10 C10        -4.8924    4.4705   51.8925 C.3     1  ZINC000898967786    0.0500
     11 O11        -5.7289    3.3159   51.9962 O.3     1  ZINC000898967786   -0.3700
     12 C12        -5.0217    2.0744   51.9474 C.3     1  ZINC000898967786    0.1400
     13 H13        -4.2771    2.0482   52.7430 H       1  ZINC000898967786    0.0700
     14 C14        -5.9915    0.9352   52.1277 C.2     1  ZINC000898967786   -0.1100
     15 C15        -6.3589    0.1398   51.1218 C.2     1  ZINC000898967786   -0.1800
     16 S16        -7.4951   -1.0674   51.7093 S.3     1  ZINC000898967786    0.1100
     17 C17        -7.4046   -0.4046   53.3359 C.2     1  ZINC000898967786   -0.2100
     18 C18        -6.5640    0.6311   53.3507 C.2     1  ZINC000898967786   -0.1300
     19 C19        -4.3255    1.9441   50.5832 C.3     1  ZINC000898967786    0.0900
     20 N20        -0.5339    0.9193   47.0561 N.pl3   1  ZINC000898967786   -0.3500
     21 C21        -1.1196   -0.3037   47.2110 C.2     1  ZINC000898967786    0.0600
     22 C22        -1.4255   -1.0602   46.1362 C.2     1  ZINC000898967786   -0.1400
     23 C23        -1.1437   -0.5973   44.8402 C.2     1  ZINC000898967786   -0.1000
     24 C24        -0.5601    0.6198   44.6716 C.2     1  ZINC000898967786   -0.0800
     25 C25        -0.2471    1.3982   45.8041 C.2     1  ZINC000898967786    0.2400
     26 N26         0.3070    2.5948   45.9393 N.2     1  ZINC000898967786   -0.4900
     27 H27         0.1734    4.9080   47.9092 H       1  ZINC000898967786    0.0800
     28 H28         1.3936    3.9592   48.7921 H       1  ZINC000898967786    0.0700
     29 H29         1.7408    4.5453   47.1476 H       1  ZINC000898967786    0.0800
     30 H30         0.1803    0.8461   49.7980 H       1  ZINC000898967786    0.1000
     31 H31         0.3157    2.6180   49.9006 H       1  ZINC000898967786    0.0700
     32 H32        -2.1573    1.0666   49.9929 H       1  ZINC000898967786    0.4000
     33 H33        -3.4441    5.2589   50.4981 H       1  ZINC000898967786    0.1100
     34 H34        -4.9207    4.6115   49.7378 H       1  ZINC000898967786    0.0800
     35 H35        -4.1474    4.4529   52.6880 H       1  ZINC000898967786    0.0600
     36 H36        -5.5010    5.3703   51.9826 H       1  ZINC000898967786    0.1100
     37 H37        -6.0121    0.2244   50.1025 H       1  ZINC000898967786    0.1700
     38 H38        -7.9434   -0.7813   54.1926 H       1  ZINC000898967786    0.1700
     39 H39        -6.3525    1.1947   54.2473 H       1  ZINC000898967786    0.1400
     40 H40        -5.0738    1.8386   49.7977 H       1  ZINC000898967786    0.0800
     41 H41        -3.6710    1.0724   50.5868 H       1  ZINC000898967786    0.0900
     42 H42        -1.3400   -0.6694   48.2030 H       1  ZINC000898967786    0.1600
     43 H43        -1.8888   -2.0262   46.2730 H       1  ZINC000898967786    0.1500
     44 H44        -1.3888   -1.2050   43.9818 H       1  ZINC000898967786    0.1500
     45 H45        -0.3385    0.9858   43.6800 H       1  ZINC000898967786    0.1500
@<TRIPOS>BOND
     1     1     2    1
     2     1    27    1
     3     1    28    1
     4     1    29    1
     5     2    26    1
     6     2     3    2
     7     3     4    1
     8     3    20    1
     9     4     5    1
    10     4    30    1
    11     4    31    1
    12     5     6   am
    13     5    32    1
    14     6     7    2
    15     6     8   am
    16     8    19    1
    17     8     9    1
    18     9    10    1
    19     9    33    1
    20     9    34    1
    21    10    11    1
    22    10    35    1
    23    10    36    1
    24    11    12    1
    25    12    13    1
    26    12    14    1
    27    12    19    1
    28    14    18    1
    29    14    15    2
    30    15    16    1
    31    15    37    1
    32    16    17    1
    33    17    18    2
    34    17    38    1
    35    18    39    1
    36    19    40    1
    37    19    41    1
    38    20    25    1
    39    20    21    1
    40    21    22    2
    41    21    42    1
    42    22    23    1
    43    22    43    1
    44    23    24    2
    45    23    44    1
    46    24    25    1
    47    24    45    1
    48    25    26    2
@<TRIPOS>SUBSTRUCTURE
     1 ZINC000898967786        1 TEMP              0 ****  ****    0 ROOT


##########                                Name:    ZINC000186316242
##########                DOCK_Rotatable_Bonds:                   7
##########                         Heavy_Atoms:                  28
##########                    Molecular_Weight:             392.525
##########                DOCK_Rotatable_Bonds:                   7
##########                       Formal_Charge:         -0.00999981
##########                     HBond_Acceptors:                   6
##########                        HBond_Donors:                   0
##########                         Heavy_Atoms:                  28
##########                          Grid_Score:          -29.670567
##########                     Grid_vdw_energy:          -30.302233
##########                      Grid_es_energy:            0.631667
##########           Internal_energy_repulsive:           21.877499

@<TRIPOS>MOLECULE
ZINC000186316242
 52 55 1 0 0
SMALL
USER_CHARGES


@<TRIPOS>ATOM
      1 C1         -7.3071    2.9524   49.4057 C.3     1  ZINC000186316242   -0.1500
      2 C2         -6.5779    3.2201   50.7239 C.3     1  ZINC000186316242    0.1000
      3 N3         -5.2219    2.6701   50.6523 N.am    1  ZINC000186316242   -0.5900
      4 C4         -4.9761    1.4227   51.0994 C.2     1  ZINC000186316242    0.5900
      5 O5         -3.8504    0.9662   51.0400 O.2     1  ZINC000186316242   -0.5000
      6 C6         -6.0713    0.6119   51.6600 C.2     1  ZINC000186316242    0.0100
      7 C7         -6.7634   -0.2987   50.9186 C.2     1  ZINC000186316242   -0.2100
      8 S8         -7.9477   -1.0365   51.9075 S.3     1  ZINC000186316242    0.2000
      9 C9         -7.4354   -0.0628   53.2807 C.2     1  ZINC000186316242    0.0700
     10 C10        -8.0276   -0.1191   54.6349 C.ar    1  ZINC000186316242    0.1900
     11 C11        -7.5088    0.6829   55.6509 C.ar    1  ZINC000186316242   -0.1500
     12 C12        -8.0741    0.6192   56.9128 C.ar    1  ZINC000186316242   -0.0700
     13 C13        -9.1403   -0.2445   57.1182 C.ar    1  ZINC000186316242   -0.1600
     14 C14        -9.6052   -1.0120   56.0652 C.ar    1  ZINC000186316242    0.1100
     15 N15        -9.0530   -0.9292   54.8725 N.ar    1  ZINC000186316242   -0.4500
     16 N16        -6.4545    0.7085   52.9242 N.2     1  ZINC000186316242   -0.3900
     17 C17        -4.1330    3.4763   50.0949 C.3     1  ZINC000186316242    0.1400
     18 H18        -4.4969    4.4676   49.8252 H       1  ZINC000186316242    0.1000
     19 C19        -3.5235    2.7741   48.8599 C.3     1  ZINC000186316242   -0.1300
     20 C20        -2.0071    3.0500   49.0176 C.3     1  ZINC000186316242    0.0400
     21 N21        -1.7945    2.9517   50.4843 N.3     1  ZINC000186316242   -0.4900
     22 C22        -0.5583    3.6371   50.8842 C.3     1  ZINC000186316242    0.0800
     23 C23         0.6105    2.6996   50.7230 C.ar    1  ZINC000186316242   -0.0700
     24 C24         1.1431    2.0625   51.8281 C.ar    1  ZINC000186316242   -0.1000
     25 C25         2.2152    1.2025   51.6801 C.ar    1  ZINC000186316242   -0.1200
     26 C26         2.7545    0.9793   50.4271 C.ar    1  ZINC000186316242   -0.1200
     27 C27         2.2213    1.6158   49.3218 C.ar    1  ZINC000186316242   -0.1200
     28 C28         1.1465    2.4725   49.4691 C.ar    1  ZINC000186316242   -0.1100
     29 C29        -2.9782    3.5880   51.1076 C.3     1  ZINC000186316242    0.0400
     30 H30        -8.3159    3.3616   49.4590 H       1  ZINC000186316242    0.0700
     31 H31        -6.7651    3.4271   48.5878 H       1  ZINC000186316242    0.0500
     32 H32        -7.3596    1.8777   49.2314 H       1  ZINC000186316242    0.0400
     33 H33        -6.5253    4.2947   50.8982 H       1  ZINC000186316242    0.1200
     34 H34        -7.1197    2.7453   51.5419 H       1  ZINC000186316242    0.0700
     35 H35        -6.5917   -0.5187   49.8753 H       1  ZINC000186316242    0.1900
     36 H36        -6.6774    1.3440   55.4559 H       1  ZINC000186316242    0.1400
     37 H37        -7.6935    1.2280   57.7196 H       1  ZINC000186316242    0.1400
     38 H38        -9.6028   -0.3174   58.0915 H       1  ZINC000186316242    0.1400
     39 H39       -10.4346   -1.6855   56.2223 H       1  ZINC000186316242    0.1600
     40 H40        -3.7255    1.7032   48.8862 H       1  ZINC000186316242    0.0900
     41 H41        -3.9023    3.2165   47.9385 H       1  ZINC000186316242    0.0700
     42 H42        -1.4220    2.2949   48.4926 H       1  ZINC000186316242    0.0800
     43 H43        -1.7585    4.0488   48.6589 H       1  ZINC000186316242    0.0400
     44 H44        -0.4096    4.5147   50.2552 H       1  ZINC000186316242    0.0400
     45 H45        -0.6350    3.9462   51.9267 H       1  ZINC000186316242    0.0800
     46 H46         0.7218    2.2368   52.8071 H       1  ZINC000186316242    0.1200
     47 H47         2.6317    0.7053   52.5437 H       1  ZINC000186316242    0.1200
     48 H48         3.5926    0.3080   50.3115 H       1  ZINC000186316242    0.1200
     49 H49         2.6428    1.4417   48.3428 H       1  ZINC000186316242    0.1200
     50 H50         0.7299    2.9697   48.6056 H       1  ZINC000186316242    0.1200
     51 H51        -2.7677    4.6362   51.3198 H       1  ZINC000186316242    0.0500
     52 H52        -3.2394    3.0652   52.0275 H       1  ZINC000186316242    0.0800
@<TRIPOS>BOND
     1     1     2    1
     2     1    30    1
     3     1    31    1
     4     1    32    1
     5     2     3    1
     6     2    33    1
     7     2    34    1
     8     3     4   am
     9     3    17    1
    10     4     5    2
    11     4     6    1
    12     6    16    1
    13     6     7    2
    14     7     8    1
    15     7    35    1
    16     8     9    1
    17     9    10    1
    18     9    16    2
    19    10    15   ar
    20    10    11   ar
    21    11    12   ar
    22    11    36    1
    23    12    13   ar
    24    12    37    1
    25    13    14   ar
    26    13    38    1
    27    14    15   ar
    28    14    39    1
    29    17    18    1
    30    17    29    1
    31    17    19    1
    32    19    20    1
    33    19    40    1
    34    19    41    1
    35    20    21    1
    36    20    42    1
    37    20    43    1
    38    21    22    1
    39    21    29    1
    40    22    23    1
    41    22    44    1
    42    22    45    1
    43    23    28   ar
    44    23    24   ar
    45    24    25   ar
    46    24    46    1
    47    25    26   ar
    48    25    47    1
    49    26    27   ar
    50    26    48    1
    51    27    28   ar
    52    27    49    1
    53    28    50    1
    54    29    51    1
    55    29    52    1
@<TRIPOS>SUBSTRUCTURE
     1 ZINC000186316242        1 TEMP              0 ****  ****    0 ROOT


##########                                Name:    ZINC000549659617
##########                DOCK_Rotatable_Bonds:                   9
##########                         Heavy_Atoms:                  28
##########                    Molecular_Weight:              418.48
##########                DOCK_Rotatable_Bonds:                   9
##########                       Formal_Charge:          0.00999956
##########                     HBond_Acceptors:                   9
##########                        HBond_Donors:                   1
##########                         Heavy_Atoms:                  28
##########                          Grid_Score:          -29.670145
##########                     Grid_vdw_energy:          -29.265577
##########                      Grid_es_energy:           -0.404568
##########           Internal_energy_repulsive:           22.314119

@<TRIPOS>MOLECULE
ZINC000549659617
 53 55 1 0 0
SMALL
USER_CHARGES


@<TRIPOS>ATOM
      1 C1          2.9396    1.9012   48.7200 C.3     1  ZINC000549659617   -0.1500
      2 C2          1.6577    2.6399   49.1104 C.3     1  ZINC000549659617   -0.1500
      3 C3          0.9816    3.1877   47.8520 C.3     1  ZINC000549659617    0.1100
      4 N4         -0.4636    2.9629   47.9370 N.am    1  ZINC000549659617   -0.6100
      5 C5         -1.1983    3.6373   48.8435 C.2     1  ZINC000549659617    0.7100
      6 O6         -0.6616    4.4311   49.5918 O.2     1  ZINC000549659617   -0.5700
      7 N7         -2.5282    3.4317   48.9205 N.am    1  ZINC000549659617   -0.7400
      8 C8         -3.3265    4.1635   49.9070 C.3     1  ZINC000549659617    0.2300
      9 H9         -3.2268    5.2349   49.7327 H       1  ZINC000549659617    0.1100
     10 C10        -4.7743    3.7660   49.7762 C.ar    1  ZINC000549659617   -0.0900
     11 C11        -5.1065    2.4693   49.4321 C.ar    1  ZINC000549659617   -0.0800
     12 C12        -6.4347    2.1045   49.3121 C.ar    1  ZINC000549659617   -0.1100
     13 C13        -7.4302    3.0366   49.5367 C.ar    1  ZINC000549659617   -0.0700
     14 C14        -7.0980    4.3336   49.8817 C.ar    1  ZINC000549659617   -0.1800
     15 C15        -8.1835    5.3499   50.1261 C.3     1  ZINC000549659617    0.5100
     16 F16        -7.7396    6.2904   51.0619 F       1  ZINC000549659617   -0.1800
     17 F17        -8.4948    5.9975   48.9256 F       1  ZINC000549659617   -0.1700
     18 F18        -9.3237    4.7054   50.6175 F       1  ZINC000549659617   -0.1700
     19 C19        -5.7703    4.6970   50.0059 C.ar    1  ZINC000549659617   -0.0500
     20 C20        -2.8306    3.8275   51.3149 C.3     1  ZINC000549659617   -0.1700
     21 C21        -2.1299    4.9376   52.1007 C.3     1  ZINC000549659617   -0.1700
     22 C22        -3.5416    4.4969   52.4928 C.3     1  ZINC000549659617   -0.1800
     23 C23        -1.1101    2.0051   47.0365 C.3     1  ZINC000549659617    0.1700
     24 H24        -2.1886    2.0145   47.1940 H       1  ZINC000549659617    0.1100
     25 C25        -0.5538    0.5918   47.2830 C.3     1  ZINC000549659617   -0.1400
     26 C26        -0.9856   -0.3198   46.1171 C.3     1  ZINC000549659617   -0.5900
     27 S27        -1.1739    0.7991   44.6825 S.o2    1  ZINC000549659617    2.3900
     28 O28        -0.1514    0.5254   43.7343 O.2     1  ZINC000549659617   -0.9300
     29 O29        -2.5342    0.8136   44.2718 O.2     1  ZINC000549659617   -0.9400
     30 C30        -0.7857    2.3598   45.5625 C.3     1  ZINC000549659617   -0.6100
     31 H31         3.4214    1.5110   49.6165 H       1  ZINC000549659617    0.0600
     32 H32         2.6943    1.0765   48.0510 H       1  ZINC000549659617    0.0600
     33 H33         3.6163    2.5902   48.2145 H       1  ZINC000549659617    0.0600
     34 H34         0.9810    1.9509   49.6159 H       1  ZINC000549659617    0.0700
     35 H35         1.9031    3.4647   49.7794 H       1  ZINC000549659617    0.0700
     36 H36         1.1788    4.2565   47.7695 H       1  ZINC000549659617    0.0800
     37 H37         1.3778    2.6763   46.9747 H       1  ZINC000549659617    0.0900
     38 H38        -2.9566    2.7992   48.3226 H       1  ZINC000549659617    0.4000
     39 H39        -4.3285    1.7410   49.2566 H       1  ZINC000549659617    0.1300
     40 H40        -6.6942    1.0915   49.0425 H       1  ZINC000549659617    0.1400
     41 H41        -8.4677    2.7519   49.4422 H       1  ZINC000549659617    0.1400
     42 H42        -5.5108    5.7101   50.2754 H       1  ZINC000549659617    0.1400
     43 H43        -2.4732    2.8076   51.4565 H       1  ZINC000549659617    0.1100
     44 H44        -1.3111    4.6481   52.7594 H       1  ZINC000549659617    0.0900
     45 H45        -2.0221    5.9074   51.6147 H       1  ZINC000549659617    0.0900
     46 H46        -4.3626    5.1766   52.2646 H       1  ZINC000549659617    0.1200
     47 H47        -3.6516    3.9174   53.4094 H       1  ZINC000549659617    0.0900
     48 H48         0.5343    0.6300   47.3345 H       1  ZINC000549659617    0.1100
     49 H49        -0.9496    0.2004   48.2202 H       1  ZINC000549659617    0.0900
     50 H50        -0.2177   -1.0669   45.9162 H       1  ZINC000549659617    0.1400
     51 H51        -1.9349   -0.8038   46.3467 H       1  ZINC000549659617    0.1400
     52 H52        -1.4219    3.1715   45.2097 H       1  ZINC000549659617    0.1400
     53 H53         0.2678    2.6157   45.4497 H       1  ZINC000549659617    0.1600
@<TRIPOS>BOND
     1     1     2    1
     2     1    31    1
     3     1    32    1
     4     1    33    1
     5     2     3    1
     6     2    34    1
     7     2    35    1
     8     3     4    1
     9     3    36    1
    10     3    37    1
    11     4     5   am
    12     4    23    1
    13     5     6    2
    14     5     7   am
    15     7     8    1
    16     7    38    1
    17     8     9    1
    18     8    10    1
    19     8    20    1
    20    10    19   ar
    21    10    11   ar
    22    11    12   ar
    23    11    39    1
    24    12    13   ar
    25    12    40    1
    26    13    14   ar
    27    13    41    1
    28    14    15    1
    29    14    19   ar
    30    15    16    1
    31    15    17    1
    32    15    18    1
    33    19    42    1
    34    20    22    1
    35    20    21    1
    36    20    43    1
    37    21    22    1
    38    21    44    1
    39    21    45    1
    40    22    46    1
    41    22    47    1
    42    23    24    1
    43    23    30    1
    44    23    25    1
    45    25    26    1
    46    25    48    1
    47    25    49    1
    48    26    27    1
    49    26    50    1
    50    26    51    1
    51    27    28    2
    52    27    29    2
    53    27    30    1
    54    30    52    1
    55    30    53    1
@<TRIPOS>SUBSTRUCTURE
     1 ZINC000549659617        1 TEMP              0 ****  ****    0 ROOT


##########                                Name:    ZINC000467104849
##########                DOCK_Rotatable_Bonds:                   6
##########                         Heavy_Atoms:                  29
##########                    Molecular_Weight:             421.896
##########                DOCK_Rotatable_Bonds:                   6
##########                       Formal_Charge:           0.0200002
##########                     HBond_Acceptors:                   7
##########                        HBond_Donors:                   0
##########                         Heavy_Atoms:                  29
##########                          Grid_Score:          -29.663862
##########                     Grid_vdw_energy:          -30.113688
##########                      Grid_es_energy:            0.449826
##########           Internal_energy_repulsive:           72.637314

@<TRIPOS>MOLECULE
ZINC000467104849
 54 56 1 0 0
SMALL
USER_CHARGES


@<TRIPOS>ATOM
      1 C1         -7.5487    1.2334   56.8721 C.3     1  ZINC000467104849    0.0200
      2 O2         -7.2897    0.6739   55.5829 O.3     1  ZINC000467104849   -0.3000
      3 C3         -7.3712    1.5149   54.5173 C.ar    1  ZINC000467104849    0.1000
      4 C4         -7.7023    2.8465   54.7075 C.ar    1  ZINC000467104849   -0.1700
      5 C5         -7.7843    3.7004   53.6230 C.ar    1  ZINC000467104849   -0.1200
      6 C6         -7.5370    3.2284   52.3477 C.ar    1  ZINC000467104849   -0.0800
      7 C7         -7.6283    4.1632   51.1692 C.3     1  ZINC000467104849   -0.0400
      8 C8         -9.0358    4.0965   50.5731 C.3     1  ZINC000467104849   -0.1300
      9 C9         -7.3362    5.5930   51.6285 C.3     1  ZINC000467104849   -0.1600
     10 C10        -6.6209    3.7552   50.1253 C.2     1  ZINC000467104849    0.5300
     11 O11        -6.9828    3.5233   48.9912 O.2     1  ZINC000467104849   -0.5300
     12 N12        -5.3177    3.6480   50.4520 N.am    1  ZINC000467104849   -0.6100
     13 C13        -4.8549    3.9243   51.8212 C.3     1  ZINC000467104849    0.0600
     14 C14        -3.9916    2.7462   52.2867 C.3     1  ZINC000467104849    0.0500
     15 O15        -2.9766    2.4924   51.3125 O.3     1  ZINC000467104849   -0.3700
     16 C16        -3.4788    2.1053   50.0312 C.3     1  ZINC000467104849    0.1300
     17 H17        -4.1015    1.2170   50.1374 H       1  ZINC000467104849    0.0800
     18 C18        -2.3259    1.8046   49.1085 C.ar    1  ZINC000467104849   -0.0900
     19 C19        -1.0656    1.5791   49.6291 C.ar    1  ZINC000467104849   -0.0500
     20 C20        -0.0068    1.3031   48.7843 C.ar    1  ZINC000467104849   -0.1400
     21 C21        -0.2087    1.2521   47.4160 C.ar    1  ZINC000467104849    0.1200
     22 F22         0.8253    0.9820   46.5895 F       1  ZINC000467104849   -0.1200
     23 C23        -1.4728    1.4779   46.8946 C.ar    1  ZINC000467104849   -0.0800
     24 Cl24       -1.7287    1.4144   45.1787 Cl      1  ZINC000467104849   -0.0400
     25 C25        -2.5311    1.7490   47.7424 C.ar    1  ZINC000467104849   -0.0700
     26 C26        -4.3166    3.2452   49.4516 C.3     1  ZINC000467104849    0.0900
     27 C27        -7.2055    1.9004   52.1508 C.ar    1  ZINC000467104849   -0.1600
     28 C28        -7.1165    1.0409   53.2336 C.ar    1  ZINC000467104849    0.1100
     29 O29        -6.7906   -0.2654   53.0416 O.3     1  ZINC000467104849   -0.3000
     30 C30        -6.5414   -0.6812   51.6974 C.3     1  ZINC000467104849    0.0200
     31 H31        -7.4505    0.4574   57.6312 H       1  ZINC000467104849    0.1000
     32 H32        -6.8329    2.0306   57.0727 H       1  ZINC000467104849    0.0600
     33 H33        -8.5602    1.6389   56.8957 H       1  ZINC000467104849    0.0600
     34 H34        -7.8968    3.2176   55.7029 H       1  ZINC000467104849    0.1400
     35 H35        -8.0426    4.7383   53.7726 H       1  ZINC000467104849    0.1300
     36 H36        -9.7559    4.4754   51.2985 H       1  ZINC000467104849    0.0700
     37 H37        -9.0768    4.7041   49.6691 H       1  ZINC000467104849    0.0700
     38 H38        -9.2777    3.0625   50.3271 H       1  ZINC000467104849    0.0700
     39 H39        -6.3036    5.6609   51.9708 H       1  ZINC000467104849    0.0700
     40 H40        -7.4890    6.2804   50.7965 H       1  ZINC000467104849    0.0700
     41 H41        -8.0079    5.8566   52.4455 H       1  ZINC000467104849    0.0700
     42 H42        -4.2629    4.8395   51.8310 H       1  ZINC000467104849    0.0800
     43 H43        -5.7134    4.0347   52.4837 H       1  ZINC000467104849    0.1100
     44 H44        -3.5267    2.9905   53.2418 H       1  ZINC000467104849    0.1100
     45 H45        -4.6161    1.8601   52.4011 H       1  ZINC000467104849    0.0600
     46 H46        -0.9077    1.6189   50.6968 H       1  ZINC000467104849    0.1500
     47 H47         0.9779    1.1277   49.1918 H       1  ZINC000467104849    0.1500
     48 H48        -3.5164    1.9246   47.3368 H       1  ZINC000467104849    0.1500
     49 H49        -4.8174    2.9080   48.5440 H       1  ZINC000467104849    0.1100
     50 H50        -3.6727    4.0943   49.2222 H       1  ZINC000467104849    0.0800
     51 H51        -7.0127    1.5341   51.1533 H       1  ZINC000467104849    0.1400
     52 H52        -7.4323   -0.5097   51.0930 H       1  ZINC000467104849    0.0600
     53 H53        -5.7091   -0.1085   51.2883 H       1  ZINC000467104849    0.0600
     54 H54        -6.2930   -1.7425   51.6854 H       1  ZINC000467104849    0.1000
@<TRIPOS>BOND
     1     1     2    1
     2     1    31    1
     3     1    32    1
     4     1    33    1
     5     2     3    1
     6     3    28   ar
     7     3     4   ar
     8     4     5   ar
     9     4    34    1
    10     5     6   ar
    11     5    35    1
    12     6     7    1
    13     6    27   ar
    14     7     8    1
    15     7     9    1
    16     7    10    1
    17     8    36    1
    18     8    37    1
    19     8    38    1
    20     9    39    1
    21     9    40    1
    22     9    41    1
    23    10    11    2
    24    10    12   am
    25    12    26    1
    26    12    13    1
    27    13    14    1
    28    13    42    1
    29    13    43    1
    30    14    15    1
    31    14    44    1
    32    14    45    1
    33    15    16    1
    34    16    17    1
    35    16    18    1
    36    16    26    1
    37    18    25   ar
    38    18    19   ar
    39    19    20   ar
    40    19    46    1
    41    20    21   ar
    42    20    47    1
    43    21    22    1
    44    21    23   ar
    45    23    24    1
    46    23    25   ar
    47    25    48    1
    48    26    49    1
    49    26    50    1
    50    27    28   ar
    51    27    51    1
    52    28    29    1
    53    29    30    1
    54    30    52    1
    55    30    53    1
    56    30    54    1
@<TRIPOS>SUBSTRUCTURE
     1 ZINC000467104849        1 TEMP              0 ****  ****    0 ROOT


##########                                Name:    ZINC000942890482
##########                DOCK_Rotatable_Bonds:                   8
##########                         Heavy_Atoms:                  25
##########                    Molecular_Weight:             346.445
##########                DOCK_Rotatable_Bonds:                   8
##########                       Formal_Charge:          -0.0100004
##########                     HBond_Acceptors:                   5
##########                        HBond_Donors:                   0
##########                         Heavy_Atoms:                  25
##########                          Grid_Score:          -29.659506
##########                     Grid_vdw_energy:          -29.253139
##########                      Grid_es_energy:           -0.406367
##########           Internal_energy_repulsive:           25.924198

@<TRIPOS>MOLECULE
ZINC000942890482
 52 54 1 0 0
SMALL
USER_CHARGES


@<TRIPOS>ATOM
      1 C1        -13.6108   -4.6352   56.2267 C.3     1  ZINC000942890482   -0.1700
      2 C2        -12.7103   -4.5903   57.4628 C.3     1  ZINC000942890482    0.1000
      3 N3        -13.1440   -3.5030   58.3437 N.am    1  ZINC000942890482   -0.6000
      4 C4        -14.2929   -3.6168   59.0393 C.2     1  ZINC000942890482    0.5700
      5 O5        -14.9691   -4.6217   58.9356 O.2     1  ZINC000942890482   -0.5100
      6 C6        -14.7302   -2.5205   59.9274 C.ar    1  ZINC000942890482   -0.1400
      7 C7        -14.2589   -2.4517   61.2400 C.ar    1  ZINC000942890482   -0.0600
      8 C8        -14.6698   -1.4261   62.0645 C.ar    1  ZINC000942890482   -0.1600
      9 C9        -15.5496   -0.4643   61.5926 C.ar    1  ZINC000942890482    0.1300
     10 F10       -15.9493    0.5387   62.4048 F       1  ZINC000942890482   -0.1300
     11 C11       -16.0206   -0.5276   60.2898 C.ar    1  ZINC000942890482   -0.1600
     12 C12       -15.6124   -1.5458   59.4556 C.ar    1  ZINC000942890482   -0.0100
     13 C13       -16.1248   -1.6133   58.0401 C.3     1  ZINC000942890482   -0.1200
     14 C14       -12.3290   -2.2920   58.4684 C.3     1  ZINC000942890482    0.1400
     15 H15       -12.8347   -1.5446   59.0799 H       1  ZINC000942890482    0.1100
     16 C16       -11.9691   -1.7177   57.0727 C.3     1  ZINC000942890482   -0.1500
     17 C17       -10.6506   -0.9615   57.3398 C.3     1  ZINC000942890482    0.1100
     18 N18       -10.0572   -1.5349   58.5566 N.am    1  ZINC000942890482   -0.6200
     19 C19        -8.9083   -1.1326   59.1350 C.2     1  ZINC000942890482    0.5300
     20 O20        -8.2712   -0.2220   58.6494 O.2     1  ZINC000942890482   -0.5400
     21 C21        -8.4150   -1.8146   60.3852 C.3     1  ZINC000942890482   -0.1300
     22 C22        -8.5665   -0.8667   61.5767 C.3     1  ZINC000942890482   -0.0700
     23 C23       -10.0025   -0.3417   61.6314 C.3     1  ZINC000942890482   -0.1600
     24 C24       -10.2817    0.8590   62.5376 C.3     1  ZINC000942890482   -0.1800
     25 C25       -10.2761    1.0327   61.0174 C.3     1  ZINC000942890482   -0.1800
     26 C26       -10.9279   -2.6222   59.0408 C.3     1  ZINC000942890482    0.0900
     27 H27       -14.6423   -4.8064   56.5345 H       1  ZINC000942890482    0.0600
     28 H28       -13.5434   -3.6868   55.6935 H       1  ZINC000942890482    0.0600
     29 H29       -13.2881   -5.4441   55.5713 H       1  ZINC000942890482    0.0700
     30 H30       -12.7777   -5.5386   57.9959 H       1  ZINC000942890482    0.0900
     31 H31       -11.6788   -4.4191   57.1550 H       1  ZINC000942890482    0.0900
     32 H32       -13.5736   -3.2008   61.6087 H       1  ZINC000942890482    0.1400
     33 H33       -14.3061   -1.3722   63.0800 H       1  ZINC000942890482    0.1400
     34 H34       -16.7058    0.2244   59.9272 H       1  ZINC000942890482    0.1400
     35 H35       -15.4976   -0.9962   57.3967 H       1  ZINC000942890482    0.0900
     36 H36       -16.0969   -2.6460   57.6924 H       1  ZINC000942890482    0.0700
     37 H37       -17.1508   -1.2465   58.0072 H       1  ZINC000942890482    0.0700
     38 H38       -11.8136   -2.5217   56.3533 H       1  ZINC000942890482    0.1000
     39 H39       -12.7430   -1.0329   56.7262 H       1  ZINC000942890482    0.0900
     40 H40        -9.9706   -1.0933   56.4982 H       1  ZINC000942890482    0.0700
     41 H41       -10.8552    0.0984   57.4912 H       1  ZINC000942890482    0.0700
     42 H42        -9.0005   -2.7168   60.5619 H       1  ZINC000942890482    0.0900
     43 H43        -7.3650   -2.0807   60.2637 H       1  ZINC000942890482    0.0900
     44 H44        -8.3402   -1.4028   62.4984 H       1  ZINC000942890482    0.0700
     45 H45        -7.8776   -0.0295   61.4648 H       1  ZINC000942890482    0.0700
     46 H46       -10.7830   -1.0974   61.5420 H       1  ZINC000942890482    0.1000
     47 H47       -11.2459    0.8935   63.0445 H       1  ZINC000942890482    0.0900
     48 H48        -9.4422    1.2750   63.0947 H       1  ZINC000942890482    0.0900
     49 H49        -9.4330    1.5629   60.5745 H       1  ZINC000942890482    0.0900
     50 H50       -11.2367    1.1814   60.5244 H       1  ZINC000942890482    0.0900
     51 H51       -10.9543   -2.6303   60.1304 H       1  ZINC000942890482    0.0800
     52 H52       -10.5810   -3.5834   58.6616 H       1  ZINC000942890482    0.0900
@<TRIPOS>BOND
     1     1     2    1
     2     1    27    1
     3     1    28    1
     4     1    29    1
     5     2     3    1
     6     2    30    1
     7     2    31    1
     8     3     4   am
     9     3    14    1
    10     4     5    2
    11     4     6    1
    12     6    12   ar
    13     6     7   ar
    14     7     8   ar
    15     7    32    1
    16     8     9   ar
    17     8    33    1
    18     9    10    1
    19     9    11   ar
    20    11    12   ar
    21    11    34    1
    22    12    13    1
    23    13    35    1
    24    13    36    1
    25    13    37    1
    26    14    15    1
    27    14    26    1
    28    14    16    1
    29    16    17    1
    30    16    38    1
    31    16    39    1
    32    17    18    1
    33    17    40    1
    34    17    41    1
    35    18    19   am
    36    18    26    1
    37    19    20    2
    38    19    21    1
    39    21    22    1
    40    21    42    1
    41    21    43    1
    42    22    23    1
    43    22    44    1
    44    22    45    1
    45    23    25    1
    46    23    24    1
    47    23    46    1
    48    24    25    1
    49    24    47    1
    50    24    48    1
    51    25    49    1
    52    25    50    1
    53    26    51    1
    54    26    52    1
@<TRIPOS>SUBSTRUCTURE
     1 ZINC000942890482        1 TEMP              0 ****  ****    0 ROOT


##########                                Name:    ZINC000518937710
##########                DOCK_Rotatable_Bonds:                   6
##########                         Heavy_Atoms:                  25
##########                    Molecular_Weight:             397.421
##########                DOCK_Rotatable_Bonds:                   6
##########                       Formal_Charge:          -0.0199997
##########                     HBond_Acceptors:                  11
##########                        HBond_Donors:                   0
##########                         Heavy_Atoms:                  25
##########                          Grid_Score:          -29.656549
##########                     Grid_vdw_energy:          -28.811720
##########                      Grid_es_energy:           -0.844829
##########           Internal_energy_repulsive:           19.430695

@<TRIPOS>MOLECULE
ZINC000518937710
 42 44 1 0 0
SMALL
USER_CHARGES


@<TRIPOS>ATOM
      1 C1        -11.5569    0.6003   58.0021 C.3     1  ZINC000518937710   -0.1900
      2 C2        -11.0040   -0.8108   57.7926 C.3     1  ZINC000518937710    0.1700
      3 H3        -11.7818   -1.4468   57.3699 H       1  ZINC000518937710    0.1100
      4 C4         -9.8135   -0.7549   56.8332 C.3     1  ZINC000518937710   -0.6600
      5 S5        -10.2856   -1.4837   55.2405 S.o2    1  ZINC000518937710    2.4000
      6 C6        -11.7024   -0.4563   54.7635 C.3     1  ZINC000518937710   -0.6600
      7 O7         -9.2330   -1.2629   54.3118 O.2     1  ZINC000518937710   -0.9200
      8 O8        -10.7439   -2.8096   55.4674 O.2     1  ZINC000518937710   -0.9300
      9 N9        -10.5691   -1.3609   59.0789 N.am    1  ZINC000518937710   -0.9600
     10 C10        -9.8875   -0.5017   60.0502 C.3     1  ZINC000518937710    0.0800
     11 C11        -8.6156   -1.0453   60.7041 C.3     1  ZINC000518937710   -0.1800
     12 C12        -8.5223    0.0654   59.6561 C.3     1  ZINC000518937710   -0.1800
     13 S13       -10.8477   -2.9540   59.4349 S.o2    1  ZINC000518937710    2.6900
     14 O14       -10.3045   -3.7066   58.3588 O.2     1  ZINC000518937710   -0.9400
     15 O15       -10.4547   -3.1376   60.7880 O.2     1  ZINC000518937710   -0.9400
     16 C16       -12.5915   -3.2022   59.3853 C.ar    1  ZINC000518937710   -0.6400
     17 C17       -13.1411   -4.0591   58.4501 C.ar    1  ZINC000518937710   -0.0300
     18 C18       -14.5088   -4.2563   58.4082 C.ar    1  ZINC000518937710   -0.1300
     19 C19       -15.3326   -3.5978   59.3018 C.ar    1  ZINC000518937710   -0.0300
     20 C20       -14.7889   -2.7375   60.2418 C.ar    1  ZINC000518937710    0.0200
     21 C21       -13.4106   -2.5428   60.2873 C.ar    1  ZINC000518937710    0.1900
     22 O22       -13.1276   -1.6596   61.2889 O.3     1  ZINC000518937710   -0.2800
     23 C23       -14.3745   -1.0043   61.5873 C.3     1  ZINC000518937710    0.5700
     24 F24       -14.4611   -0.7105   62.9523 F       1  ZINC000518937710   -0.1200
     25 F25       -14.5121    0.1609   60.8254 F       1  ZINC000518937710   -0.1400
     26 O26       -15.3690   -1.9798   61.2179 O.3     1  ZINC000518937710   -0.2900
     27 H27       -10.7905    1.2267   58.4585 H       1  ZINC000518937710    0.1000
     28 H28       -11.8466    1.0234   57.0403 H       1  ZINC000518937710    0.0800
     29 H29       -12.4273    0.5560   58.6566 H       1  ZINC000518937710    0.0700
     30 H30        -9.5157    0.2829   56.6837 H       1  ZINC000518937710    0.1600
     31 H31        -8.9795   -1.3150   57.2560 H       1  ZINC000518937710    0.1400
     32 H32       -11.3686    0.5677   54.5960 H       1  ZINC000518937710    0.1300
     33 H33       -12.1439   -0.8489   53.8474 H       1  ZINC000518937710    0.1300
     34 H34       -12.4460   -0.4703   55.5603 H       1  ZINC000518937710    0.1300
     35 H35       -10.5372    0.1274   60.6587 H       1  ZINC000518937710    0.1500
     36 H36        -8.4284   -0.7740   61.7431 H       1  ZINC000518937710    0.1100
     37 H37        -8.2859   -2.0422   60.4116 H       1  ZINC000518937710    0.1000
     38 H38        -8.1312   -0.2007   58.6741 H       1  ZINC000518937710    0.1000
     39 H39        -8.2736    1.0676   60.0056 H       1  ZINC000518937710    0.1000
     40 H40       -12.5006   -4.5754   57.7503 H       1  ZINC000518937710    0.1600
     41 H41       -14.9345   -4.9260   57.6757 H       1  ZINC000518937710    0.1600
     42 H42       -16.4008   -3.7538   59.2669 H       1  ZINC000518937710    0.1500
@<TRIPOS>BOND
     1     1     2    1
     2     1    27    1
     3     1    28    1
     4     1    29    1
     5     2     3    1
     6     2     4    1
     7     2     9    1
     8     4     5    1
     9     4    30    1
    10     4    31    1
    11     5     6    1
    12     5     7    2
    13     5     8    2
    14     6    32    1
    15     6    33    1
    16     6    34    1
    17     9    10    1
    18     9    13   am
    19    10    12    1
    20    10    11    1
    21    10    35    1
    22    11    12    1
    23    11    36    1
    24    11    37    1
    25    12    38    1
    26    12    39    1
    27    13    14    2
    28    13    15    2
    29    13    16    1
    30    16    21   ar
    31    16    17   ar
    32    17    18   ar
    33    17    40    1
    34    18    19   ar
    35    18    41    1
    36    19    20   ar
    37    19    42    1
    38    20    26    1
    39    20    21   ar
    40    21    22    1
    41    22    23    1
    42    23    24    1
    43    23    25    1
    44    23    26    1
@<TRIPOS>SUBSTRUCTURE
     1 ZINC000518937710        1 TEMP              0 ****  ****    0 ROOT


##########                                Name:    ZINC001707162141
##########                DOCK_Rotatable_Bonds:                   9
##########                         Heavy_Atoms:                  25
##########                    Molecular_Weight:               344.5
##########                DOCK_Rotatable_Bonds:                   9
##########                       Formal_Charge:          -0.0299999
##########                     HBond_Acceptors:                   5
##########                        HBond_Donors:                   1
##########                         Heavy_Atoms:                  25
##########                          Grid_Score:          -29.633018
##########                     Grid_vdw_energy:          -29.760454
##########                      Grid_es_energy:            0.127437
##########           Internal_energy_repulsive:           79.584846

@<TRIPOS>MOLECULE
ZINC001707162141
 57 59 1 0 0
SMALL
USER_CHARGES


@<TRIPOS>ATOM
      1 C1        -10.2691    1.9800   53.7018 C.3     1  ZINC001707162141   -0.1800
      2 C2         -9.1826    0.9747   54.0889 C.3     1  ZINC001707162141    0.1700
      3 H3         -8.5801    1.3851   54.8994 H       1  ZINC001707162141    0.1000
      4 N4         -9.8096   -0.2781   54.5308 N.3     1  ZINC001707162141   -0.6400
      5 C5         -9.6057   -0.4898   55.9702 C.3     1  ZINC001707162141    0.0700
      6 C6        -10.2052   -1.8372   56.3775 C.3     1  ZINC001707162141    0.1500
      7 H7         -9.6556   -2.6435   55.8917 H       1  ZINC001707162141    0.0700
      8 C8        -11.6780   -1.8912   55.9598 C.3     1  ZINC001707162141   -0.1200
      9 C9        -12.3079   -3.1806   56.4914 C.3     1  ZINC001707162141   -0.0900
     10 H10       -11.7646   -4.0395   56.0972 H       1  ZINC001707162141    0.0700
     11 C11       -13.7701   -3.2547   56.0468 C.3     1  ZINC001707162141   -0.1500
     12 C12       -12.2388   -3.1916   58.0202 C.3     1  ZINC001707162141   -0.1300
     13 C13       -10.7722   -3.1523   58.4613 C.3     1  ZINC001707162141    0.1100
     14 N14       -10.1212   -1.9930   57.8360 N.am    1  ZINC001707162141   -0.6100
     15 C15        -9.4601   -1.0893   58.5862 C.2     1  ZINC001707162141    0.5100
     16 O16        -8.9268   -0.1366   58.0581 O.2     1  ZINC001707162141   -0.4800
     17 C17        -9.3834   -1.2627   60.0813 C.3     1  ZINC001707162141   -0.1400
     18 C18        -8.4301   -0.2194   60.6674 C.3     1  ZINC001707162141   -0.0900
     19 C19        -8.6375   -0.1324   62.1809 C.3     1  ZINC001707162141   -0.0900
     20 C20        -9.7573    0.8646   62.4856 C.3     1  ZINC001707162141   -0.1500
     21 C21        -9.3639    2.1908   63.1395 C.3     1  ZINC001707162141   -0.1800
     22 C22       -10.0933    1.1219   63.9560 C.3     1  ZINC001707162141   -0.1800
     23 C23        -8.3022    0.7025   52.8965 C.ar    1  ZINC001707162141    0.3500
     24 N24        -8.1241    1.6526   52.0006 N.ar    1  ZINC001707162141   -0.5000
     25 C25        -7.3535    1.4518   50.9437 C.ar    1  ZINC001707162141    0.1500
     26 C26        -6.7401    0.2197   50.7808 C.ar    1  ZINC001707162141   -0.2400
     27 C27        -6.9559   -0.7562   51.7412 C.ar    1  ZINC001707162141    0.1500
     28 N28        -7.7352   -0.4809   52.7746 N.ar    1  ZINC001707162141   -0.5200
     29 H29       -10.9059    2.1768   54.5643 H       1  ZINC001707162141    0.0600
     30 H30        -9.8039    2.9095   53.3739 H       1  ZINC001707162141    0.0600
     31 H31       -10.8716    1.5695   52.8914 H       1  ZINC001707162141    0.0600
     32 H32       -10.7914   -0.2927   54.2988 H       1  ZINC001707162141    0.3300
     33 H33        -8.5382   -0.4856   56.1904 H       1  ZINC001707162141    0.1000
     34 H34       -10.0948    0.3089   56.5277 H       1  ZINC001707162141    0.0200
     35 H35       -12.2052   -1.0314   56.3731 H       1  ZINC001707162141    0.0700
     36 H36       -11.7487   -1.8734   54.8722 H       1  ZINC001707162141    0.0700
     37 H37       -14.3137   -2.3963   56.4414 H       1  ZINC001707162141    0.0500
     38 H38       -13.8196   -3.2470   54.9580 H       1  ZINC001707162141    0.0600
     39 H39       -14.2185   -4.1736   56.4244 H       1  ZINC001707162141    0.0600
     40 H40       -12.7085   -4.0992   58.3992 H       1  ZINC001707162141    0.0700
     41 H41       -12.7607   -2.3195   58.4142 H       1  ZINC001707162141    0.0700
     42 H42       -10.2711   -4.0672   58.1455 H       1  ZINC001707162141    0.0600
     43 H43       -10.7193   -3.0600   59.5461 H       1  ZINC001707162141    0.0800
     44 H44       -10.3754   -1.1320   60.5135 H       1  ZINC001707162141    0.0800
     45 H45        -9.0150   -2.2622   60.3126 H       1  ZINC001707162141    0.0800
     46 H46        -7.4005   -0.5095   60.4579 H       1  ZINC001707162141    0.0700
     47 H47        -8.6328    0.7520   60.2164 H       1  ZINC001707162141    0.0700
     48 H48        -8.9102   -1.1144   62.5673 H       1  ZINC001707162141    0.0600
     49 H49        -7.7147    0.2015   62.6554 H       1  ZINC001707162141    0.0600
     50 H50       -10.5804    0.8800   61.7712 H       1  ZINC001707162141    0.1000
     51 H51        -8.3073    2.3529   63.3525 H       1  ZINC001707162141    0.0900
     52 H52        -9.9282    3.0790   62.8551 H       1  ZINC001707162141    0.0900
     53 H53       -11.1372    1.3069   64.2088 H       1  ZINC001707162141    0.0900
     54 H54        -9.5165    0.5810   64.7061 H       1  ZINC001707162141    0.0900
     55 H55        -7.2084    2.2358   50.2153 H       1  ZINC001707162141    0.1600
     56 H56        -6.1088    0.0247   49.9265 H       1  ZINC001707162141    0.1400
     57 H57        -6.4945   -1.7281   51.6470 H       1  ZINC001707162141    0.1600
@<TRIPOS>BOND
     1     1     2    1
     2     1    29    1
     3     1    30    1
     4     1    31    1
     5     2     3    1
     6     2     4    1
     7     2    23    1
     8     4     5    1
     9     4    32    1
    10     5     6    1
    11     5    33    1
    12     5    34    1
    13     6     7    1
    14     6    14    1
    15     6     8    1
    16     8     9    1
    17     8    35    1
    18     8    36    1
    19     9    10    1
    20     9    11    1
    21     9    12    1
    22    11    37    1
    23    11    38    1
    24    11    39    1
    25    12    13    1
    26    12    40    1
    27    12    41    1
    28    13    14    1
    29    13    42    1
    30    13    43    1
    31    14    15   am
    32    15    16    2
    33    15    17    1
    34    17    18    1
    35    17    44    1
    36    17    45    1
    37    18    19    1
    38    18    46    1
    39    18    47    1
    40    19    20    1
    41    19    48    1
    42    19    49    1
    43    20    22    1
    44    20    21    1
    45    20    50    1
    46    21    22    1
    47    21    51    1
    48    21    52    1
    49    22    53    1
    50    22    54    1
    51    23    28   ar
    52    23    24   ar
    53    24    25   ar
    54    25    26   ar
    55    25    55    1
    56    26    27   ar
    57    26    56    1
    58    27    28   ar
    59    27    57    1
@<TRIPOS>SUBSTRUCTURE
     1 ZINC001707162141        1 TEMP              0 ****  ****    0 ROOT


##########                                Name:    ZINC000611836474
##########                DOCK_Rotatable_Bonds:                   7
##########                         Heavy_Atoms:                  22
##########                    Molecular_Weight:             366.258
##########                DOCK_Rotatable_Bonds:                   7
##########                       Formal_Charge:          -0.0300004
##########                     HBond_Acceptors:                   5
##########                        HBond_Donors:                   1
##########                         Heavy_Atoms:                  22
##########                          Grid_Score:          -29.625931
##########                     Grid_vdw_energy:          -29.720512
##########                      Grid_es_energy:            0.094581
##########           Internal_energy_repulsive:           10.455703

@<TRIPOS>MOLECULE
ZINC000611836474
 42 43 1 0 0
SMALL
USER_CHARGES


@<TRIPOS>ATOM
      1 C1        -13.4902   -2.5991   56.3473 C.3     1  ZINC000611836474   -0.1500
      2 C2        -14.2560   -3.8610   56.7501 C.3     1  ZINC000611836474   -0.1400
      3 C3        -13.5417   -4.5391   57.9209 C.3     1  ZINC000611836474    0.1300
      4 N4        -13.7102   -3.7301   59.1305 N.pl3   1  ZINC000611836474   -0.3900
      5 N5        -14.8675   -3.6529   59.9158 N.2     1  ZINC000611836474   -0.2900
      6 C6        -14.6382   -2.8321   60.9087 C.2     1  ZINC000611836474    0.0600
      7 C7        -13.3289   -2.3572   60.7928 C.2     1  ZINC000611836474   -0.2800
      8 C8        -12.7740   -2.9300   59.6898 C.2     1  ZINC000611836474    0.3000
      9 N9        -11.4781   -2.7232   59.2174 N.am    1  ZINC000611836474   -0.6500
     10 C10       -10.9409   -1.4873   59.2425 C.2     1  ZINC000611836474    0.5200
     11 O11       -11.5839   -0.5553   59.6774 O.2     1  ZINC000611836474   -0.4700
     12 C12        -9.5414   -1.2635   58.7304 C.3     1  ZINC000611836474    0.0700
     13 H13        -9.2705   -2.0701   58.0492 H       1  ZINC000611836474    0.1100
     14 C14        -8.5649   -1.2409   59.9079 C.3     1  ZINC000611836474   -0.1800
     15 O15        -9.4815   -0.0149   58.0380 O.3     1  ZINC000611836474   -0.2700
     16 C16        -8.9712   -0.0317   56.7784 C.ar    1  ZINC000611836474    0.1500
     17 C17        -9.5336   -0.8519   55.8119 C.ar    1  ZINC000611836474   -0.2000
     18 C18        -9.0129   -0.8674   54.5320 C.ar    1  ZINC000611836474   -0.0600
     19 C19        -7.9319   -0.0666   54.2142 C.ar    1  ZINC000611836474   -0.1100
     20 C20        -7.3661   -0.0861   52.8176 C.3     1  ZINC000611836474   -0.1100
     21 C21        -7.3690    0.7528   55.1755 C.ar    1  ZINC000611836474   -0.0500
     22 C22        -7.8894    0.7764   56.4555 C.ar    1  ZINC000611836474   -0.1200
     23 Br23       -7.1195    1.8969   57.7698 Br      1  ZINC000611836474   -0.0300
     24 H24       -13.9990   -2.1160   55.5132 H       1  ZINC000611836474    0.0600
     25 H25       -13.4485   -1.9136   57.1937 H       1  ZINC000611836474    0.0600
     26 H26       -12.4774   -2.8689   56.0480 H       1  ZINC000611836474    0.0600
     27 H27       -15.2688   -3.5912   57.0494 H       1  ZINC000611836474    0.0800
     28 H28       -14.2977   -4.5464   55.9037 H       1  ZINC000611836474    0.0600
     29 H29       -13.9689   -5.5287   58.0832 H       1  ZINC000611836474    0.0800
     30 H30       -12.4801   -4.6347   57.6926 H       1  ZINC000611836474    0.1000
     31 H31       -15.3407   -2.5666   61.6848 H       1  ZINC000611836474    0.1900
     32 H32       -12.8428   -1.6622   61.4613 H       1  ZINC000611836474    0.1700
     33 H33       -10.9634   -3.4688   58.8708 H       1  ZINC000611836474    0.4100
     34 H34        -8.6106   -2.1933   60.4361 H       1  ZINC000611836474    0.0800
     35 H35        -7.5527   -1.0790   59.5375 H       1  ZINC000611836474    0.0800
     36 H36        -8.8358   -0.4343   60.5892 H       1  ZINC000611836474    0.0800
     37 H37       -10.3777   -1.4786   56.0595 H       1  ZINC000611836474    0.1400
     38 H38        -9.4508   -1.5061   53.7792 H       1  ZINC000611836474    0.1300
     39 H39        -7.8700    0.6663   52.2108 H       1  ZINC000611836474    0.0700
     40 H40        -6.2989    0.1322   52.8548 H       1  ZINC000611836474    0.0700
     41 H41        -7.5203   -1.0711   52.3769 H       1  ZINC000611836474    0.0700
     42 H42        -6.5245    1.3776   54.9247 H       1  ZINC000611836474    0.1400
@<TRIPOS>BOND
     1     1     2    1
     2     1    24    1
     3     1    25    1
     4     1    26    1
     5     2     3    1
     6     2    27    1
     7     2    28    1
     8     3     4    1
     9     3    29    1
    10     3    30    1
    11     4     8    1
    12     4     5    1
    13     5     6    2
    14     6     7    1
    15     6    31    1
    16     7     8    2
    17     7    32    1
    18     8     9    1
    19     9    10   am
    20     9    33    1
    21    10    11    2
    22    10    12    1
    23    12    13    1
    24    12    14    1
    25    12    15    1
    26    14    34    1
    27    14    35    1
    28    14    36    1
    29    15    16    1
    30    16    22   ar
    31    16    17   ar
    32    17    18   ar
    33    17    37    1
    34    18    19   ar
    35    18    38    1
    36    19    20    1
    37    19    21   ar
    38    20    39    1
    39    20    40    1
    40    20    41    1
    41    21    22   ar
    42    21    42    1
    43    22    23    1
@<TRIPOS>SUBSTRUCTURE
     1 ZINC000611836474        1 TEMP              0 ****  ****    0 ROOT


##########                                Name:    ZINC000637608314
##########                DOCK_Rotatable_Bonds:                   9
##########                         Heavy_Atoms:                  28
##########                    Molecular_Weight:             387.479
##########                DOCK_Rotatable_Bonds:                   9
##########                       Formal_Charge:           0.0499991
##########                     HBond_Acceptors:                   7
##########                        HBond_Donors:                   2
##########                         Heavy_Atoms:                  28
##########                          Grid_Score:          -29.622559
##########                     Grid_vdw_energy:          -29.263390
##########                      Grid_es_energy:           -0.359168
##########           Internal_energy_repulsive:           13.532837

@<TRIPOS>MOLECULE
ZINC000637608314
 57 59 1 0 0
SMALL
USER_CHARGES


@<TRIPOS>ATOM
      1 C1         -3.9349    1.7661   50.5056 C.3     1  ZINC000637608314   -0.1400
      2 C2         -5.0141    2.7340   50.9950 C.3     1  ZINC000637608314   -0.0400
      3 C3         -4.5116    3.4725   52.2372 C.3     1  ZINC000637608314   -0.1500
      4 C4         -5.3289    3.7467   49.8922 C.3     1  ZINC000637608314   -0.1500
      5 C5         -6.2619    1.9625   51.3397 C.2     1  ZINC000637608314    0.1900
      6 C6         -7.3604    2.6246   51.7719 C.2     1  ZINC000637608314   -0.2400
      7 C7         -8.5247    1.9131   52.0942 C.2     1  ZINC000637608314    0.0200
      8 C8         -8.5331    0.5552   51.9666 C.2     1  ZINC000637608314   -0.2400
      9 C9         -9.7715   -0.2338   52.3057 C.3     1  ZINC000637608314    0.2100
     10 N10        -9.7981   -0.5062   53.7449 N.am    1  ZINC000637608314   -0.7300
     11 C11       -10.9699   -0.7571   54.3618 C.2     1  ZINC000637608314    0.7100
     12 O12       -12.0050   -0.7559   53.7240 O.2     1  ZINC000637608314   -0.5900
     13 N13       -10.9942   -1.0092   55.6855 N.am    1  ZINC000637608314   -0.6200
     14 C14        -9.7471   -1.0089   56.4542 C.3     1  ZINC000637608314    0.2000
     15 C15        -9.4322    0.3957   56.9002 C.2     1  ZINC000637608314   -0.0400
     16 C16        -8.2010    0.9056   57.0832 C.2     1  ZINC000637608314   -0.1900
     17 C17        -8.3705    2.2459   57.5000 C.2     1  ZINC000637608314   -0.2200
     18 C18        -9.6952    2.4750   57.5467 C.2     1  ZINC000637608314   -0.0300
     19 O19       -10.3332    1.3525   57.1769 O.3     1  ZINC000637608314   -0.1700
     20 C20       -12.2677   -1.2837   56.3556 C.3     1  ZINC000637608314    0.1300
     21 C21       -12.5725   -2.7810   56.2780 C.3     1  ZINC000637608314    0.0700
     22 H22       -12.6956   -3.0797   55.2370 H       1  ZINC000637608314    0.0900
     23 C23       -13.8607   -3.0949   57.0687 C.3     1  ZINC000637608314   -0.1500
     24 C24       -13.5099   -4.4474   57.7468 C.3     1  ZINC000637608314   -0.1600
     25 C25       -11.9944   -4.2604   58.0094 C.3     1  ZINC000637608314    0.0500
     26 O26       -11.5041   -3.5260   56.8741 O.3     1  ZINC000637608314   -0.3800
     27 C27        -7.3750   -0.1005   51.5149 C.2     1  ZINC000637608314    0.5300
     28 O28        -7.3691   -1.3153   51.3957 O.2     1  ZINC000637608314   -0.5400
     29 N29        -6.2740    0.6113   51.2079 N.am    1  ZINC000637608314   -0.6000
     30 H30        -3.7105    1.0447   51.2913 H       1  ZINC000637608314    0.0700
     31 H31        -4.2929    1.2401   49.6207 H       1  ZINC000637608314    0.0700
     32 H32        -3.0324    2.3241   50.2562 H       1  ZINC000637608314    0.0700
     33 H33        -3.6091    4.0305   51.9878 H       1  ZINC000637608314    0.0700
     34 H34        -5.2803    4.1621   52.5858 H       1  ZINC000637608314    0.0600
     35 H35        -4.2872    2.7510   53.0229 H       1  ZINC000637608314    0.0700
     36 H36        -5.6870    3.2206   49.0072 H       1  ZINC000637608314    0.0700
     37 H37        -6.0978    4.4362   50.2408 H       1  ZINC000637608314    0.0600
     38 H38        -4.4264    4.3047   49.6428 H       1  ZINC000637608314    0.0700
     39 H39        -7.3401    3.7000   51.8688 H       1  ZINC000637608314    0.1500
     40 H40        -9.4050    2.4345   52.4401 H       1  ZINC000637608314    0.1400
     41 H41       -10.6554    0.3405   52.0282 H       1  ZINC000637608314    0.0800
     42 H42        -9.7636   -1.1760   51.7577 H       1  ZINC000637608314    0.0800
     43 H43        -8.9723   -0.5059   54.2539 H       1  ZINC000637608314    0.4000
     44 H44        -9.8585   -1.6511   57.3279 H       1  ZINC000637608314    0.1200
     45 H45        -8.9354   -1.3824   55.8300 H       1  ZINC000637608314    0.0900
     46 H46        -7.2630    0.3899   56.9399 H       1  ZINC000637608314    0.1500
     47 H47        -7.5869    2.9506   57.7359 H       1  ZINC000637608314    0.1500
     48 H48       -10.1658    3.4049   57.8297 H       1  ZINC000637608314    0.2000
     49 H49       -12.2012   -0.9802   57.4004 H       1  ZINC000637608314    0.0800
     50 H50       -13.0644   -0.7248   55.8648 H       1  ZINC000637608314    0.1000
     51 H51       -14.0545   -2.3252   57.8158 H       1  ZINC000637608314    0.0800
     52 H52       -14.7111   -3.2072   56.3962 H       1  ZINC000637608314    0.0900
     53 H53       -14.0580   -4.5725   58.6807 H       1  ZINC000637608314    0.0800
     54 H54       -13.6914   -5.2838   57.0719 H       1  ZINC000637608314    0.0800
     55 H55       -11.8366   -3.6916   58.9257 H       1  ZINC000637608314    0.0600
     56 H56       -11.4993   -5.2294   58.0746 H       1  ZINC000637608314    0.0800
     57 H57        -5.4780    0.1528   50.8963 H       1  ZINC000637608314    0.4100
@<TRIPOS>BOND
     1     1     2    1
     2     1    30    1
     3     1    31    1
     4     1    32    1
     5     2     3    1
     6     2     4    1
     7     2     5    1
     8     3    33    1
     9     3    34    1
    10     3    35    1
    11     4    36    1
    12     4    37    1
    13     4    38    1
    14     5    29    1
    15     5     6    2
    16     6     7    1
    17     6    39    1
    18     7     8    2
    19     7    40    1
    20     8     9    1
    21     8    27    1
    22     9    10    1
    23     9    41    1
    24     9    42    1
    25    10    11   am
    26    10    43    1
    27    11    12    2
    28    11    13   am
    29    13    14    1
    30    13    20    1
    31    14    15    1
    32    14    44    1
    33    14    45    1
    34    15    19    1
    35    15    16    2
    36    16    17    1
    37    16    46    1
    38    17    18    2
    39    17    47    1
    40    18    19    1
    41    18    48    1
    42    20    21    1
    43    20    49    1
    44    20    50    1
    45    21    22    1
    46    21    26    1
    47    21    23    1
    48    23    24    1
    49    23    51    1
    50    23    52    1
    51    24    25    1
    52    24    53    1
    53    24    54    1
    54    25    26    1
    55    25    55    1
    56    25    56    1
    57    27    28    2
    58    27    29   am
    59    29    57    1
@<TRIPOS>SUBSTRUCTURE
     1 ZINC000637608314        1 TEMP              0 ****  ****    0 ROOT


##########                                Name:    ZINC000281092425
##########                DOCK_Rotatable_Bonds:                   8
##########                         Heavy_Atoms:                  23
##########                    Molecular_Weight:             332.304
##########                DOCK_Rotatable_Bonds:                   8
##########                       Formal_Charge:         2.98023e-08
##########                     HBond_Acceptors:                   9
##########                        HBond_Donors:                   2
##########                         Heavy_Atoms:                  23
##########                          Grid_Score:          -29.614075
##########                     Grid_vdw_energy:          -27.708809
##########                      Grid_es_energy:           -1.905267
##########           Internal_energy_repulsive:           14.574478

@<TRIPOS>MOLECULE
ZINC000281092425
 41 42 1 0 0
SMALL
USER_CHARGES


@<TRIPOS>ATOM
      1 O1        -10.6524   -1.1440   55.8849 O.2     1  ZINC000281092425   -0.1800
      2 N2         -9.6123   -0.5308   56.0453 N.pl3   1  ZINC000281092425    0.0400
      3 O3         -9.3121   -0.1197   57.1518 O.2     1  ZINC000281092425   -0.1500
      4 C4         -8.7102   -0.2905   54.8967 C.ar    1  ZINC000281092425   -0.1200
      5 C5         -9.0517   -0.7573   53.6419 C.ar    1  ZINC000281092425    0.0200
      6 C6         -8.2124   -0.5350   52.5672 C.ar    1  ZINC000281092425   -0.2200
      7 C7         -7.0224    0.1593   52.7462 C.ar    1  ZINC000281092425    0.3000
      8 N8         -6.1739    0.3845   51.6599 N.pl3   1  ZINC000281092425   -0.7200
      9 C9         -5.3904    1.6203   51.5864 C.3     1  ZINC000281092425    0.1200
     10 C10        -5.0544    1.9249   50.1252 C.3     1  ZINC000281092425   -0.0900
     11 H11        -5.3080    1.0638   49.5069 H       1  ZINC000281092425    0.0900
     12 C12        -5.8576    3.1411   49.6600 C.3     1  ZINC000281092425    0.0800
     13 O13        -7.2444    2.8016   49.6002 O.3     1  ZINC000281092425   -0.5700
     14 C14        -3.5589    2.2218   49.9970 C.3     1  ZINC000281092425   -0.1100
     15 H15        -3.2628    3.0160   50.6825 H       1  ZINC000281092425    0.0900
     16 C16        -2.7178    0.9393   50.2406 C.3     1  ZINC000281092425   -0.1600
     17 C17        -1.4566    1.2497   49.3956 C.3     1  ZINC000281092425    0.0500
     18 O18        -1.9426    1.9515   48.2404 O.3     1  ZINC000281092425   -0.3900
     19 C19        -3.1941    2.5874   48.5422 C.3     1  ZINC000281092425    0.0700
     20 C20        -6.6780    0.6293   54.0064 C.ar    1  ZINC000281092425   -0.2800
     21 C21        -7.5251    0.4084   55.0807 C.ar    1  ZINC000281092425    0.2300
     22 O22        -7.1911    0.8676   56.3154 O.3     1  ZINC000281092425   -0.2900
     23 C23        -6.9144    2.2644   56.4351 C.3     1  ZINC000281092425    0.4100
     24 F24        -8.0886    2.9929   56.2163 F       1  ZINC000281092425   -0.1900
     25 F25        -6.4299    2.5354   57.7193 F       1  ZINC000281092425   -0.1900
     26 H26        -9.9764   -1.2972   53.5009 H       1  ZINC000281092425    0.1600
     27 H27        -8.4812   -0.9015   51.5875 H       1  ZINC000281092425    0.1500
     28 H28        -6.1033   -0.2772   50.9543 H       1  ZINC000281092425    0.4100
     29 H29        -5.9697    2.4432   52.0051 H       1  ZINC000281092425    0.0800
     30 H30        -4.4677    1.4998   52.1540 H       1  ZINC000281092425    0.0800
     31 H31        -5.7144    3.9617   50.3630 H       1  ZINC000281092425    0.0500
     32 H32        -5.5152    3.4460   48.6710 H       1  ZINC000281092425    0.0500
     33 H33        -7.8285    3.5582   49.4537 H       1  ZINC000281092425    0.3800
     34 H34        -2.4665    0.8287   51.2955 H       1  ZINC000281092425    0.0800
     35 H35        -3.2331    0.0546   49.8666 H       1  ZINC000281092425    0.0800
     36 H36        -0.7691    1.8801   49.9597 H       1  ZINC000281092425    0.0600
     37 H37        -0.9642    0.3244   49.0969 H       1  ZINC000281092425    0.0900
     38 H38        -3.9673    2.2213   47.8666 H       1  ZINC000281092425    0.0800
     39 H39        -3.0939    3.6680   48.4403 H       1  ZINC000281092425    0.0700
     40 H40        -5.7536    1.1694   54.1484 H       1  ZINC000281092425    0.1500
     41 H41        -6.1659    2.5511   55.6964 H       1  ZINC000281092425    0.1900
@<TRIPOS>BOND
     1     1     2    2
     2     2     3    2
     3     2     4    1
     4     4    21   ar
     5     4     5   ar
     6     5     6   ar
     7     5    26    1
     8     6     7   ar
     9     6    27    1
    10     7     8    1
    11     7    20   ar
    12     8     9    1
    13     8    28    1
    14     9    10    1
    15     9    29    1
    16     9    30    1
    17    10    11    1
    18    10    12    1
    19    10    14    1
    20    12    13    1
    21    12    31    1
    22    12    32    1
    23    13    33    1
    24    14    15    1
    25    14    19    1
    26    14    16    1
    27    16    17    1
    28    16    34    1
    29    16    35    1
    30    17    18    1
    31    17    36    1
    32    17    37    1
    33    18    19    1
    34    19    38    1
    35    19    39    1
    36    20    21   ar
    37    20    40    1
    38    21    22    1
    39    22    23    1
    40    23    24    1
    41    23    25    1
    42    23    41    1
@<TRIPOS>SUBSTRUCTURE
     1 ZINC000281092425        1 TEMP              0 ****  ****    0 ROOT


##########                                Name:    ZINC000516003207
##########                DOCK_Rotatable_Bonds:                   5
##########                         Heavy_Atoms:                  24
##########                    Molecular_Weight:             342.462
##########                DOCK_Rotatable_Bonds:                   5
##########                       Formal_Charge:          -0.0200001
##########                     HBond_Acceptors:                   5
##########                        HBond_Donors:                   1
##########                         Heavy_Atoms:                  24
##########                          Grid_Score:          -29.605104
##########                     Grid_vdw_energy:          -29.543249
##########                      Grid_es_energy:           -0.061855
##########           Internal_energy_repulsive:           10.732255

@<TRIPOS>MOLECULE
ZINC000516003207
 46 49 1 0 0
SMALL
USER_CHARGES


@<TRIPOS>ATOM
      1 C1        -13.6784   -5.5258   56.9419 C.3     1  ZINC000516003207    0.0300
      2 O2        -13.3840   -4.3138   57.6393 O.3     1  ZINC000516003207   -0.3600
      3 C3        -11.9922   -4.1130   57.8937 C.3     1  ZINC000516003207    0.0900
      4 H4        -11.5377   -4.9393   58.4403 H       1  ZINC000516003207    0.0800
      5 C5        -11.1931   -3.6804   56.6511 C.3     1  ZINC000516003207   -0.1700
      6 C6        -11.5111   -2.2259   57.0430 C.3     1  ZINC000516003207    0.1500
      7 H7        -12.4373   -1.8486   56.6099 H       1  ZINC000516003207    0.1200
      8 N8        -10.3830   -1.3085   56.8634 N.am    1  ZINC000516003207   -0.7200
      9 C9         -9.9052   -1.0619   55.6275 C.2     1  ZINC000516003207    0.5600
     10 O10       -10.4113   -1.5994   54.6618 O.2     1  ZINC000516003207   -0.5300
     11 C11        -8.7655   -0.1374   55.4463 C.ar    1  ZINC000516003207   -0.1400
     12 C12        -8.2818    0.5979   56.5301 C.ar    1  ZINC000516003207   -0.0800
     13 C13        -7.2179    1.4616   56.3613 C.ar    1  ZINC000516003207   -0.1200
     14 C14        -6.6260    1.6034   55.1216 C.ar    1  ZINC000516003207   -0.0800
     15 C15        -7.0998    0.8741   54.0310 C.ar    1  ZINC000516003207   -0.0300
     16 C16        -6.4621    1.0285   52.7005 C.2     1  ZINC000516003207    0.1100
     17 C17        -6.9233    0.4177   51.5905 C.2     1  ZINC000516003207   -0.2600
     18 S18        -5.8777    0.8738   50.2481 S.3     1  ZINC000516003207    0.1400
     19 C19        -4.9284    1.8334   51.2964 C.2     1  ZINC000516003207    0.0600
     20 C20        -3.7215    2.6311   50.8741 C.3     1  ZINC000516003207   -0.0800
     21 N21        -5.3921    1.7835   52.4971 N.2     1  ZINC000516003207   -0.4700
     22 C22        -8.1677   -0.0020   54.1943 C.ar    1  ZINC000516003207   -0.0300
     23 C23       -11.6673   -2.7381   58.4785 C.3     1  ZINC000516003207   -0.1100
     24 C24       -12.6144   -2.0524   59.4639 C.3     1  ZINC000516003207   -0.1200
     25 C25       -11.6594   -2.5236   60.5756 C.3     1  ZINC000516003207   -0.1400
     26 C26       -10.5509   -2.5587   59.5079 C.3     1  ZINC000516003207   -0.1200
     27 H27       -13.3330   -6.3763   57.5297 H       1  ZINC000516003207    0.0400
     28 H28       -14.7546   -5.6039   56.7876 H       1  ZINC000516003207    0.0900
     29 H29       -13.1723   -5.5217   55.9765 H       1  ZINC000516003207    0.0400
     30 H30       -10.1324   -3.9252   56.7076 H       1  ZINC000516003207    0.0900
     31 H31       -11.6494   -3.9881   55.7103 H       1  ZINC000516003207    0.0800
     32 H32        -9.9800   -0.8786   57.6339 H       1  ZINC000516003207    0.4000
     33 H33        -8.7405    0.4911   57.5020 H       1  ZINC000516003207    0.1300
     34 H34        -6.8472    2.0290   57.2022 H       1  ZINC000516003207    0.1400
     35 H35        -5.7944    2.2810   54.9960 H       1  ZINC000516003207    0.1300
     36 H36        -7.7814   -0.2356   51.5346 H       1  ZINC000516003207    0.1800
     37 H37        -3.5540    2.4981   49.8053 H       1  ZINC000516003207    0.0800
     38 H38        -3.8910    3.6866   51.0868 H       1  ZINC000516003207    0.0900
     39 H39        -2.8466    2.2854   51.4248 H       1  ZINC000516003207    0.0900
     40 H40        -8.5379   -0.5686   53.3527 H       1  ZINC000516003207    0.1500
     41 H41       -12.6537   -0.9690   59.3511 H       1  ZINC000516003207    0.0800
     42 H42       -13.6022   -2.5108   59.5123 H       1  ZINC000516003207    0.0800
     43 H43       -11.4929   -1.7776   61.3526 H       1  ZINC000516003207    0.0700
     44 H44       -11.9089   -3.5057   60.9776 H       1  ZINC000516003207    0.0800
     45 H45        -9.8902   -3.4216   59.5914 H       1  ZINC000516003207    0.0700
     46 H46       -10.0102   -1.6176   59.4074 H       1  ZINC000516003207    0.0900
@<TRIPOS>BOND
     1     1     2    1
     2     1    27    1
     3     1    28    1
     4     1    29    1
     5     2     3    1
     6     3     4    1
     7     3    23    1
     8     3     5    1
     9     5     6    1
    10     5    30    1
    11     5    31    1
    12     6     7    1
    13     6     8    1
    14     6    23    1
    15     8     9   am
    16     8    32    1
    17     9    10    2
    18     9    11    1
    19    11    22   ar
    20    11    12   ar
    21    12    13   ar
    22    12    33    1
    23    13    14   ar
    24    13    34    1
    25    14    15   ar
    26    14    35    1
    27    15    16    1
    28    15    22   ar
    29    16    21    1
    30    16    17    2
    31    17    18    1
    32    17    36    1
    33    18    19    1
    34    19    20    1
    35    19    21    2
    36    20    37    1
    37    20    38    1
    38    20    39    1
    39    22    40    1
    40    23    26    1
    41    23    24    1
    42    24    25    1
    43    24    41    1
    44    24    42    1
    45    25    26    1
    46    25    43    1
    47    25    44    1
    48    26    45    1
    49    26    46    1
@<TRIPOS>SUBSTRUCTURE
     1 ZINC000516003207        1 TEMP              0 ****  ****    0 ROOT


##########                                Name:    ZINC000822206030
##########                DOCK_Rotatable_Bonds:                   7
##########                         Heavy_Atoms:                  29
##########                    Molecular_Weight:             391.448
##########                DOCK_Rotatable_Bonds:                   7
##########                       Formal_Charge:         -0.00999995
##########                     HBond_Acceptors:                   7
##########                        HBond_Donors:                   1
##########                         Heavy_Atoms:                  29
##########                          Grid_Score:          -29.603146
##########                     Grid_vdw_energy:          -29.724524
##########                      Grid_es_energy:            0.121377
##########           Internal_energy_repulsive:           21.266918

@<TRIPOS>MOLECULE
ZINC000822206030
 51 55 1 0 0
SMALL
USER_CHARGES


@<TRIPOS>ATOM
      1 C1        -13.6498   -1.2507   60.3656 C.3     1  ZINC000822206030   -0.1300
      2 C2        -13.1200   -2.3255   59.4516 C.ar    1  ZINC000822206030   -0.0400
      3 C3        -13.9493   -3.3473   59.0332 C.ar    1  ZINC000822206030   -0.1500
      4 C4        -13.4628   -4.3355   58.1937 C.ar    1  ZINC000822206030    0.1100
      5 F5        -14.2755   -5.3345   57.7857 F       1  ZINC000822206030   -0.1400
      6 C6        -12.1445   -4.3008   57.7716 C.ar    1  ZINC000822206030   -0.1500
      7 C7        -11.3117   -3.2804   58.1880 C.ar    1  ZINC000822206030   -0.0800
      8 C8        -11.7989   -2.2860   59.0253 C.ar    1  ZINC000822206030    0.1100
      9 N9        -10.9565   -1.2505   59.4482 N.am    1  ZINC000822206030   -0.5600
     10 C10       -10.9951    0.0481   58.7711 C.3     1  ZINC000822206030    0.1500
     11 C11       -10.2062   -0.0300   57.4895 C.ar    1  ZINC000822206030   -0.0900
     12 C12       -10.6928   -0.7665   56.4246 C.ar    1  ZINC000822206030   -0.1000
     13 C13        -9.9746   -0.8411   55.2484 C.ar    1  ZINC000822206030   -0.0800
     14 C14        -8.7575   -0.1730   55.1348 C.ar    1  ZINC000822206030   -0.0100
     15 C15        -7.9808   -0.2492   53.8719 C.2     1  ZINC000822206030    0.2200
     16 N16        -8.3189   -0.9017   52.7778 N.2     1  ZINC000822206030   -0.2900
     17 N17        -7.3852   -0.7231   51.9076 N.pl3   1  ZINC000822206030   -0.2300
     18 N18        -6.4664    0.0217   52.4157 N.2     1  ZINC000822206030   -0.0500
     19 N19        -6.8017    0.3371   53.6206 N.2     1  ZINC000822206030   -0.2700
     20 C20        -8.2720    0.5673   56.2103 C.ar    1  ZINC000822206030   -0.0800
     21 C21        -9.0009    0.6395   57.3802 C.ar    1  ZINC000822206030   -0.0900
     22 C22       -10.1100   -1.4485   60.4781 C.2     1  ZINC000822206030    0.5500
     23 O23       -10.0790   -2.5231   61.0397 O.2     1  ZINC000822206030   -0.5000
     24 C24        -9.2020   -0.3347   60.9320 C.3     1  ZINC000822206030   -0.1900
     25 H25        -8.5854    0.1157   60.1541 H       1  ZINC000822206030    0.1200
     26 C26        -8.6032   -0.4392   62.3361 C.3     1  ZINC000822206030   -0.1400
     27 C27        -9.7092    0.5794   62.0492 C.3     1  ZINC000822206030   -0.0900
     28 H28        -9.4261    1.6312   62.0065 H       1  ZINC000822206030    0.1100
     29 C29       -11.0992    0.2929   62.6208 C.3     1  ZINC000822206030   -0.1100
     30 C30       -11.5904    1.1835   63.7638 C.3     1  ZINC000822206030   -0.2000
     31 C31       -12.1952    1.3295   62.3660 C.3     1  ZINC000822206030   -0.1200
     32 H32       -14.0579   -0.4350   59.7688 H       1  ZINC000822206030    0.0900
     33 H33       -14.4344   -1.6659   60.9982 H       1  ZINC000822206030    0.0700
     34 H34       -12.8404   -0.8739   60.9908 H       1  ZINC000822206030    0.0700
     35 H35       -14.9779   -3.3759   59.3609 H       1  ZINC000822206030    0.1400
     36 H36       -11.7670   -5.0722   57.1167 H       1  ZINC000822206030    0.1400
     37 H37       -10.2834   -3.2539   57.8589 H       1  ZINC000822206030    0.1400
     38 H38       -12.0291    0.3098   58.5459 H       1  ZINC000822206030    0.1000
     39 H39       -10.5607    0.8090   59.4195 H       1  ZINC000822206030    0.0900
     40 H40       -11.6364   -1.2845   56.5138 H       1  ZINC000822206030    0.1300
     41 H41       -10.3552   -1.4166   54.4176 H       1  ZINC000822206030    0.1400
     42 H42        -7.3761   -1.0924   51.0107 H       1  ZINC000822206030    0.4800
     43 H43        -7.3289    1.0870   56.1277 H       1  ZINC000822206030    0.1300
     44 H44        -8.6256    1.2133   58.2147 H       1  ZINC000822206030    0.1400
     45 H45        -8.8660   -1.3135   62.9315 H       1  ZINC000822206030    0.1000
     46 H46        -7.5928   -0.0571   62.4820 H       1  ZINC000822206030    0.1000
     47 H47       -11.3932   -0.7565   62.6379 H       1  ZINC000822206030    0.1000
     48 H48       -12.2076    0.7199   64.5334 H       1  ZINC000822206030    0.0900
     49 H49       -10.9233    1.9734   64.1086 H       1  ZINC000822206030    0.0900
     50 H50       -11.9260    2.2158   61.7914 H       1  ZINC000822206030    0.0800
     51 H51       -13.2104    0.9622   62.2161 H       1  ZINC000822206030    0.0900
@<TRIPOS>BOND
     1     1     2    1
     2     1    32    1
     3     1    33    1
     4     1    34    1
     5     2     8   ar
     6     2     3   ar
     7     3     4   ar
     8     3    35    1
     9     4     5    1
    10     4     6   ar
    11     6     7   ar
    12     6    36    1
    13     7     8   ar
    14     7    37    1
    15     8     9    1
    16     9    10    1
    17     9    22   am
    18    10    11    1
    19    10    38    1
    20    10    39    1
    21    11    21   ar
    22    11    12   ar
    23    12    13   ar
    24    12    40    1
    25    13    14   ar
    26    13    41    1
    27    14    15    1
    28    14    20   ar
    29    15    19    1
    30    15    16    2
    31    16    17    1
    32    17    18    1
    33    17    42    1
    34    18    19    2
    35    20    21   ar
    36    20    43    1
    37    21    44    1
    38    22    23    2
    39    22    24    1
    40    24    25    1
    41    24    27    1
    42    24    26    1
    43    26    27    1
    44    26    45    1
    45    26    46    1
    46    27    28    1
    47    27    29    1
    48    29    31    1
    49    29    30    1
    50    29    47    1
    51    30    31    1
    52    30    48    1
    53    30    49    1
    54    31    50    1
    55    31    51    1
@<TRIPOS>SUBSTRUCTURE
     1 ZINC000822206030        1 TEMP              0 ****  ****    0 ROOT


##########                                Name:    ZINC000022858610
##########                DOCK_Rotatable_Bonds:                   9
##########                         Heavy_Atoms:                  26
##########                    Molecular_Weight:             369.343
##########                DOCK_Rotatable_Bonds:                   9
##########                       Formal_Charge:          0.00999956
##########                     HBond_Acceptors:                   9
##########                        HBond_Donors:                   2
##########                         Heavy_Atoms:                  26
##########                          Grid_Score:          -29.597298
##########                     Grid_vdw_energy:          -27.734205
##########                      Grid_es_energy:           -1.863092
##########           Internal_energy_repulsive:           21.100018

@<TRIPOS>MOLECULE
ZINC000022858610
 44 45 1 0 0
SMALL
USER_CHARGES


@<TRIPOS>ATOM
      1 C1          1.7679   -0.4359   46.4423 C.3     1  <0>         0.0100
      2 N2          1.0407    0.8349   46.5610 N.3     1  <0>        -0.5300
      3 C3          1.9295    1.9761   46.3045 C.3     1  <0>         0.0200
      4 C4         -0.1225    0.8616   45.6643 C.3     1  <0>         0.1500
      5 H5         -0.5102    1.8784   45.6024 H       1  <0>         0.1200
      6 C6         -1.2093   -0.0662   46.2110 C.3     1  <0>         0.1300
      7 N7         -1.4522    0.2444   47.6220 N.am    1  <0>        -0.6800
      8 C8         -2.2840    1.2505   47.9570 C.2     1  <0>         0.5100
      9 O9         -2.8329    1.8983   47.0899 O.2     1  <0>        -0.5100
     10 C10        -2.5302    1.5682   49.3954 C.2     1  <0>         0.5200
     11 O11        -1.8689    1.0283   50.2581 O.2     1  <0>        -0.4900
     12 N12        -3.4869    2.4547   49.7355 N.am    1  <0>        -0.6500
     13 C13        -3.7172    2.7519   51.0813 C.ar    1  <0>         0.1900
     14 C14        -2.7820    3.4830   51.8027 C.ar    1  <0>        -0.1200
     15 C15        -3.0129    3.7749   53.1328 C.ar    1  <0>        -0.0700
     16 C16        -4.1734    3.3403   53.7463 C.ar    1  <0>        -0.1300
     17 C17        -5.1065    2.6117   53.0311 C.ar    1  <0>        -0.0500
     18 C18        -4.8850    2.3216   51.6994 C.ar    1  <0>        -0.2100
     19 C19        -5.9021    1.5277   50.9209 C.3     1  <0>         0.5100
     20 F20        -7.0500    1.3491   51.7003 F       1  <0>        -0.1700
     21 F21        -6.2358    2.2177   49.7506 F       1  <0>        -0.1800
     22 F22        -5.3648    0.2793   50.5891 F       1  <0>        -0.1700
     23 C23         0.2908    0.3971   44.2916 C.2     1  <0>        -0.0500
     24 C24        -0.4320   -0.3934   43.4779 C.2     1  <0>        -0.1900
     25 C25         0.3295   -0.5750   42.3007 C.2     1  <0>        -0.2100
     26 C26         1.4722    0.1153   42.4653 C.2     1  <0>        -0.0400
     27 O27         1.4407    0.7069   43.6707 O.3     1  <0>        -0.1700
     28 H28         2.5056   -0.5085   47.2415 H       1  <0>         0.0700
     29 H29         1.0651   -1.2654   46.5201 H       1  <0>         0.0700
     30 H30         2.2728   -0.4768   45.4771 H       1  <0>         0.0500
     31 H31         2.3373    1.8996   45.2965 H       1  <0>         0.0300
     32 H32         1.3657    2.9041   46.3989 H       1  <0>         0.0700
     33 H33         2.7451    1.9711   47.0276 H       1  <0>         0.0800
     34 H34        -2.1290    0.0776   45.6438 H       1  <0>         0.0900
     35 H35        -0.8833   -1.1021   46.1179 H       1  <0>         0.0800
     36 H36        -1.0144   -0.2741   48.3150 H       1  <0>         0.4200
     37 H37        -4.0154    2.8862   49.0462 H       1  <0>         0.4300
     38 H38        -1.8753    3.8225   51.3243 H       1  <0>         0.1500
     39 H39        -2.2861    4.3431   53.6944 H       1  <0>         0.1400
     40 H40        -4.3514    3.5700   54.7864 H       1  <0>         0.1400
     41 H41        -6.0115    2.2732   53.5135 H       1  <0>         0.1500
     42 H42        -1.4068   -0.8100   43.6846 H       1  <0>         0.1500
     43 H43         0.0480   -1.1568   41.4354 H       1  <0>         0.1500
     44 H44         2.2766    0.1854   41.7481 H       1  <0>         0.2000
@<TRIPOS>BOND
     1     1     2    1
     2     1    28    1
     3     1    29    1
     4     1    30    1
     5     2     3    1
     6     2     4    1
     7     3    31    1
     8     3    32    1
     9     3    33    1
    10     4     5    1
    11     4     6    1
    12     4    23    1
    13     6     7    1
    14     6    34    1
    15     6    35    1
    16     7     8   am
    17     7    36    1
    18     8     9    2
    19     8    10    1
    20    10    11    2
    21    10    12   am
    22    12    13    1
    23    12    37    1
    24    13    18   ar
    25    13    14   ar
    26    14    15   ar
    27    14    38    1
    28    15    16   ar
    29    15    39    1
    30    16    17   ar
    31    16    40    1
    32    17    18   ar
    33    17    41    1
    34    18    19    1
    35    19    20    1
    36    19    21    1
    37    19    22    1
    38    23    27    1
    39    23    24    2
    40    24    25    1
    41    24    42    1
    42    25    26    2
    43    25    43    1
    44    26    27    1
    45    26    44    1
@<TRIPOS>SUBSTRUCTURE
     1 <0>         1 TEMP              0 ****  ****    0 ROOT


##########                                Name:    ZINC000888733009
##########                DOCK_Rotatable_Bonds:                   6
##########                         Heavy_Atoms:                  25
##########                    Molecular_Weight:             360.434
##########                DOCK_Rotatable_Bonds:                   6
##########                       Formal_Charge:        -1.02073e-06
##########                     HBond_Acceptors:                   7
##########                        HBond_Donors:                   2
##########                         Heavy_Atoms:                  25
##########                          Grid_Score:          -29.592581
##########                     Grid_vdw_energy:          -25.334965
##########                      Grid_es_energy:           -4.257616
##########           Internal_energy_repulsive:            3.635756

@<TRIPOS>MOLECULE
ZINC000888733009
 45 48 1 0 0
SMALL
USER_CHARGES


@<TRIPOS>ATOM
      1 C1         -6.3940    2.3477   50.6045 C.3     1  ZINC000888733009   -0.1500
      2 C2         -5.2652    2.2221   49.5792 C.3     1  ZINC000888733009    0.0700
      3 H3         -5.6390    1.7761   48.6576 H       1  ZINC000888733009    0.0700
      4 C4         -4.1059    1.3746   50.1559 C.3     1  ZINC000888733009   -0.1300
      5 C5         -2.8480    2.0636   49.6102 C.3     1  ZINC000888733009   -0.1100
      6 C6         -1.7717    2.3960   50.6405 C.3     1  ZINC000888733009   -0.1300
      7 C7         -0.7434    2.0288   49.5548 C.3     1  ZINC000888733009    0.1200
      8 N8          0.3977    1.2637   50.0632 N.am    1  ZINC000888733009   -0.7100
      9 C9          1.4162    1.8993   50.6758 C.2     1  ZINC000888733009    0.5900
     10 O10         1.3870    3.1089   50.8080 O.2     1  ZINC000888733009   -0.5600
     11 C11         2.5588    1.1339   51.1830 C.2     1  ZINC000888733009   -0.2400
     12 C12         3.3461    0.3339   50.3952 C.2     1  ZINC000888733009    0.0800
     13 N13         3.1671    0.1475   49.0345 N.am    1  ZINC000888733009   -0.6100
     14 C14         3.7582    0.9818   48.1564 C.2     1  ZINC000888733009    0.6000
     15 O15         4.4481    1.8999   48.5592 O.2     1  ZINC000888733009   -0.4900
     16 C16         3.5701    0.7834   46.7163 C.2     1  ZINC000888733009   -0.0900
     17 C17         4.2737    1.4018   45.7223 C.2     1  ZINC000888733009   -0.1000
     18 C18         3.7654    0.9176   44.5069 C.2     1  ZINC000888733009   -0.2300
     19 C19         2.7863    0.0361   44.8081 C.2     1  ZINC000888733009    0.0100
     20 O20         2.6756   -0.0464   46.1403 O.3     1  ZINC000888733009   -0.1600
     21 S21         4.5757   -0.3991   51.3205 S.3     1  ZINC000888733009    0.3000
     22 C22         4.0333    0.3761   52.7983 C.2     1  ZINC000888733009   -0.2800
     23 C23         2.9799    1.1463   52.5668 C.2     1  ZINC000888733009   -0.0900
     24 C24        -1.8377    1.1526   48.9176 C.3     1  ZINC000888733009   -0.1400
     25 C25        -3.3647    3.2447   48.7781 C.3     1  ZINC000888733009    0.0700
     26 O26        -4.6830    3.5174   49.3111 O.3     1  ZINC000888733009   -0.3700
     27 H27        -7.1901    2.9690   50.1941 H       1  ZINC000888733009    0.0600
     28 H28        -6.7875    1.3577   50.8346 H       1  ZINC000888733009    0.0700
     29 H29        -6.0083    2.8061   51.5151 H       1  ZINC000888733009    0.0600
     30 H30        -4.1160    1.4022   51.2456 H       1  ZINC000888733009    0.0800
     31 H31        -4.1667    0.3472   49.7969 H       1  ZINC000888733009    0.0800
     32 H32        -1.7496    3.4476   50.9265 H       1  ZINC000888733009    0.0800
     33 H33        -1.7632    1.7222   51.4973 H       1  ZINC000888733009    0.0900
     34 H34        -0.4435    2.8736   48.9348 H       1  ZINC000888733009    0.1200
     35 H35         0.4204    0.2996   49.9590 H       1  ZINC000888733009    0.4000
     36 H36         2.6162   -0.5836   48.7135 H       1  ZINC000888733009    0.4400
     37 H37         5.0672    2.1237   45.8472 H       1  ZINC000888733009    0.1700
     38 H38         4.0946    1.1971   43.5169 H       1  ZINC000888733009    0.1600
     39 H39         2.1939   -0.5146   44.0926 H       1  ZINC000888733009    0.2200
     40 H40         4.4976    0.2464   53.7646 H       1  ZINC000888733009    0.1700
     41 H41         2.4815    1.7189   53.3351 H       1  ZINC000888733009    0.1500
     42 H42        -1.8478    0.1273   49.2870 H       1  ZINC000888733009    0.0900
     43 H43        -1.8682    1.2128   47.8296 H       1  ZINC000888733009    0.0800
     44 H44        -2.7161    4.1115   48.9042 H       1  ZINC000888733009    0.0900
     45 H45        -3.4315    2.9683   47.7258 H       1  ZINC000888733009    0.0700
@<TRIPOS>BOND
     1     1     2    1
     2     1    27    1
     3     1    28    1
     4     1    29    1
     5     2     3    1
     6     2    26    1
     7     2     4    1
     8     4     5    1
     9     4    30    1
    10     4    31    1
    11     5    24    1
    12     5     6    1
    13     5    25    1
    14     6     7    1
    15     6    32    1
    16     6    33    1
    17     7     8    1
    18     7    24    1
    19     7    34    1
    20     8     9   am
    21     8    35    1
    22     9    10    2
    23     9    11    1
    24    11    23    1
    25    11    12    2
    26    12    13    1
    27    12    21    1
    28    13    14   am
    29    13    36    1
    30    14    15    2
    31    14    16    1
    32    16    20    1
    33    16    17    2
    34    17    18    1
    35    17    37    1
    36    18    19    2
    37    18    38    1
    38    19    20    1
    39    19    39    1
    40    21    22    1
    41    22    23    2
    42    22    40    1
    43    23    41    1
    44    24    42    1
    45    24    43    1
    46    25    26    1
    47    25    44    1
    48    25    45    1
@<TRIPOS>SUBSTRUCTURE
     1 ZINC000888733009        1 TEMP              0 ****  ****    0 ROOT


##########                                Name:    ZINC000883773972
##########                DOCK_Rotatable_Bonds:                   4
##########                         Heavy_Atoms:                  23
##########                    Molecular_Weight:             343.447
##########                DOCK_Rotatable_Bonds:                   4
##########                       Formal_Charge:                0.01
##########                     HBond_Acceptors:                   8
##########                        HBond_Donors:                   1
##########                         Heavy_Atoms:                  23
##########                          Grid_Score:          -29.588305
##########                     Grid_vdw_energy:          -27.420368
##########                      Grid_es_energy:           -2.167936
##########           Internal_energy_repulsive:           16.607918

@<TRIPOS>MOLECULE
ZINC000883773972
 48 50 1 0 0
SMALL
USER_CHARGES


@<TRIPOS>ATOM
      1 C1          2.4684    0.0617   42.0804 C.3     1  ZINC000883773972   -0.1700
      2 C2          2.6119   -0.1796   43.5610 C.2     1  ZINC000883773972    0.5300
      3 O3          3.5886   -0.7569   43.9895 O.2     1  ZINC000883773972   -0.5400
      4 N4          1.6548    0.2462   44.4090 N.am    1  ZINC000883773972   -0.6200
      5 C5          1.6460    0.0950   45.8734 C.3     1  ZINC000883773972    0.1100
      6 C6          0.8951    1.3156   46.4309 C.3     1  ZINC000883773972   -0.1100
      7 H7          1.5775    2.0565   46.8474 H       1  ZINC000883773972    0.1000
      8 C8         -0.1421    0.8471   47.4652 C.3     1  ZINC000883773972    0.1300
      9 N9         -1.4072    1.5136   47.1157 N.am    1  ZINC000883773972   -0.6400
     10 C10        -2.3797    1.8937   47.9680 C.2     1  ZINC000883773972    0.7300
     11 O11        -3.3800    2.4398   47.5444 O.2     1  ZINC000883773972   -0.5800
     12 N12        -2.2433    1.6685   49.2898 N.am    1  ZINC000883773972   -0.7400
     13 C13        -3.2995    2.0832   50.2163 C.3     1  ZINC000883773972    0.1800
     14 H14        -2.9939    1.8570   51.2379 H       1  ZINC000883773972    0.1100
     15 C15        -3.5335    3.5847   50.0784 C.3     1  ZINC000883773972   -0.1500
     16 C16        -4.4417    4.0924   51.1946 C.3     1  ZINC000883773972   -0.1000
     17 C17        -5.8656    3.5709   50.9882 C.3     1  ZINC000883773972   -0.5600
     18 H18        -6.2221    3.8645   50.0009 H       1  ZINC000883773972    0.1400
     19 C19        -6.7861    4.1575   52.0603 C.3     1  ZINC000883773972   -0.1400
     20 S20        -5.8562    1.7588   51.1169 S.o2    1  ZINC000883773972    2.4200
     21 O21        -5.3865    1.3971   52.4083 O.2     1  ZINC000883773972   -0.9200
     22 O22        -7.1112    1.2646   50.6698 O.2     1  ZINC000883773972   -0.9300
     23 C23        -4.5874    1.3232   49.8915 C.3     1  ZINC000883773972   -0.6300
     24 C24        -1.4029    1.6840   45.6534 C.3     1  ZINC000883773972    0.1100
     25 C25         0.0872    1.8794   45.2361 C.3     1  ZINC000883773972   -0.1100
     26 H26         0.3150    2.9235   45.0217 H       1  ZINC000883773972    0.1000
     27 C27         0.4172    0.9592   44.0526 C.3     1  ZINC000883773972    0.1100
     28 H28         3.3330   -0.3500   41.5597 H       1  ZINC000883773972    0.0900
     29 H29         1.5618   -0.4238   41.7193 H       1  ZINC000883773972    0.0900
     30 H30         2.4067    1.1334   41.8912 H       1  ZINC000883773972    0.0900
     31 H31         1.1274   -0.8225   46.1516 H       1  ZINC000883773972    0.0800
     32 H32         2.6673    0.0782   46.2540 H       1  ZINC000883773972    0.0900
     33 H33        -0.2618   -0.2350   47.4111 H       1  ZINC000883773972    0.0700
     34 H34         0.1705    1.1397   48.4676 H       1  ZINC000883773972    0.0900
     35 H35        -1.4458    1.2317   49.6276 H       1  ZINC000883773972    0.4000
     36 H36        -2.5764    4.1037   50.1301 H       1  ZINC000883773972    0.0900
     37 H37        -4.0003    3.7885   49.1147 H       1  ZINC000883773972    0.0800
     38 H38        -4.0641    3.7428   52.1554 H       1  ZINC000883773972    0.0900
     39 H39        -4.4508    5.1824   51.1859 H       1  ZINC000883773972    0.0900
     40 H40        -6.7839    5.2450   51.9857 H       1  ZINC000883773972    0.0800
     41 H41        -7.7998    3.7852   51.9122 H       1  ZINC000883773972    0.0700
     42 H42        -6.4304    3.8602   53.0468 H       1  ZINC000883773972    0.0800
     43 H43        -4.9337    1.5973   48.8948 H       1  ZINC000883773972    0.1400
     44 H44        -4.3956    0.2510   49.9303 H       1  ZINC000883773972    0.1400
     45 H45        -1.8198    0.7992   45.1724 H       1  ZINC000883773972    0.0800
     46 H46        -1.9795    2.5670   45.3779 H       1  ZINC000883773972    0.0800
     47 H47         0.5510    1.5492   43.1459 H       1  ZINC000883773972    0.0900
     48 H48        -0.3812    0.2307   43.9111 H       1  ZINC000883773972    0.0700
@<TRIPOS>BOND
     1     1     2    1
     2     1    28    1
     3     1    29    1
     4     1    30    1
     5     2     3    2
     6     2     4   am
     7     4    27    1
     8     4     5    1
     9     5     6    1
    10     5    31    1
    11     5    32    1
    12     6     7    1
    13     6    25    1
    14     6     8    1
    15     8     9    1
    16     8    33    1
    17     8    34    1
    18     9    10   am
    19     9    24    1
    20    10    11    2
    21    10    12   am
    22    12    13    1
    23    12    35    1
    24    13    14    1
    25    13    23    1
    26    13    15    1
    27    15    16    1
    28    15    36    1
    29    15    37    1
    30    16    17    1
    31    16    38    1
    32    16    39    1
    33    17    18    1
    34    17    19    1
    35    17    20    1
    36    19    40    1
    37    19    41    1
    38    19    42    1
    39    20    21    2
    40    20    22    2
    41    20    23    1
    42    23    43    1
    43    23    44    1
    44    24    25    1
    45    24    45    1
    46    24    46    1
    47    25    26    1
    48    25    27    1
    49    27    47    1
    50    27    48    1
@<TRIPOS>SUBSTRUCTURE
     1 ZINC000883773972        1 TEMP              0 ****  ****    0 ROOT


##########                                Name:    ZINC001013196242
##########                DOCK_Rotatable_Bonds:                   5
##########                         Heavy_Atoms:                  24
##########                    Molecular_Weight:              349.86
##########                DOCK_Rotatable_Bonds:                   5
##########                       Formal_Charge:        -3.05474e-07
##########                     HBond_Acceptors:                   6
##########                        HBond_Donors:                   1
##########                         Heavy_Atoms:                  24
##########                          Grid_Score:          -29.587490
##########                     Grid_vdw_energy:          -28.891596
##########                      Grid_es_energy:           -0.695895
##########           Internal_energy_repulsive:           10.707165

@<TRIPOS>MOLECULE
ZINC001013196242
 48 51 1 0 0
SMALL
USER_CHARGES


@<TRIPOS>ATOM
      1 C1         -1.1177    3.7484   51.1643 C.3     1  ZINC001013196242   -0.1600
      2 C2         -2.3334    3.6848   50.2375 C.3     1  ZINC001013196242    0.1400
      3 H3         -2.5843    4.6857   49.8864 H       1  ZINC001013196242    0.0800
      4 C4         -3.5355    3.0757   50.9896 C.3     1  ZINC001013196242   -0.1400
      5 C5         -4.2148    2.1976   49.9057 C.3     1  ZINC001013196242    0.1300
      6 H6         -4.8648    2.7969   49.2683 H       1  ZINC001013196242    0.1100
      7 N7         -4.9566    1.0912   50.5153 N.am    1  ZINC001013196242   -0.7200
      8 C8         -6.2730    1.2232   50.7724 C.2     1  ZINC001013196242    0.5400
      9 O9         -6.8438    2.2574   50.4975 O.2     1  ZINC001013196242   -0.5200
     10 C10        -7.0357    0.0857   51.4011 C.3     1  ZINC001013196242   -0.1400
     11 C11        -6.5939   -0.2304   52.8410 C.3     1  ZINC001013196242   -0.0800
     12 C12        -7.6468    0.7851   53.2979 C.3     1  ZINC001013196242   -0.1600
     13 C13        -8.2209    0.9964   54.6944 C.3     1  ZINC001013196242   -0.1700
     14 C14        -7.4371    2.1181   54.0075 C.3     1  ZINC001013196242   -0.1400
     15 C15        -8.3942    0.5060   51.9894 C.3     1  ZINC001013196242   -0.0800
     16 C16        -2.9890    1.6763   49.1147 C.3     1  ZINC001013196242    0.0800
     17 N17        -2.0432    2.8111   49.0913 N.am    1  ZINC001013196242   -0.6000
     18 C18        -1.0763    3.0088   48.1736 C.2     1  ZINC001013196242    0.6100
     19 O19        -0.3504    3.9823   48.2545 O.2     1  ZINC001013196242   -0.5400
     20 C20        -0.8987    2.0508   47.0773 C.2     1  ZINC001013196242   -0.0400
     21 C21        -1.7980    1.7971   46.0632 C.2     1  ZINC001013196242   -0.1400
     22 C22        -1.2264    0.8197   45.2417 C.2     1  ZINC001013196242   -0.1200
     23 Cl23       -1.9422    0.1373   43.8149 Cl      1  ZINC001013196242   -0.0400
     24 C24        -0.0145    0.5004   45.7573 C.2     1  ZINC001013196242    0.0400
     25 N25         0.1983    1.2458   46.8703 N.pl3   1  ZINC001013196242   -0.4000
     26 C26         1.3935    1.1962   47.7161 C.3     1  ZINC001013196242    0.0700
     27 H27        -0.2715    4.1742   50.6250 H       1  ZINC001013196242    0.0700
     28 H28        -1.3505    4.3730   52.0268 H       1  ZINC001013196242    0.0700
     29 H29        -0.8649    2.7431   51.5015 H       1  ZINC001013196242    0.0600
     30 H30        -3.1973    2.4636   51.8256 H       1  ZINC001013196242    0.0900
     31 H31        -4.2126    3.8581   51.3321 H       1  ZINC001013196242    0.0900
     32 H32        -4.5003    0.2635   50.7340 H       1  ZINC001013196242    0.4000
     33 H33        -7.0919   -0.7925   50.7579 H       1  ZINC001013196242    0.1000
     34 H34        -6.8099   -1.2532   53.1499 H       1  ZINC001013196242    0.1000
     35 H35        -5.5702    0.0724   53.0605 H       1  ZINC001013196242    0.0700
     36 H36        -9.3006    1.1172   54.7820 H       1  ZINC001013196242    0.1000
     37 H37        -7.7368    0.4774   55.5217 H       1  ZINC001013196242    0.0900
     38 H38        -6.4375    2.3369   54.3829 H       1  ZINC001013196242    0.0900
     39 H39        -8.0014    2.9767   53.6432 H       1  ZINC001013196242    0.1000
     40 H40        -8.8137    1.3991   51.5264 H       1  ZINC001013196242    0.0800
     41 H41        -9.1113   -0.3118   52.0614 H       1  ZINC001013196242    0.0900
     42 H42        -2.5448    0.8210   49.6239 H       1  ZINC001013196242    0.0800
     43 H43        -3.2798    1.4056   48.0997 H       1  ZINC001013196242    0.1000
     44 H44        -2.7622    2.2646   45.9287 H       1  ZINC001013196242    0.1600
     45 H45         0.6714   -0.2258   45.3468 H       1  ZINC001013196242    0.1800
     46 H46         2.0847    1.9834   47.4148 H       1  ZINC001013196242    0.0800
     47 H47         1.1078    1.3426   48.7577 H       1  ZINC001013196242    0.1000
     48 H48         1.8773    0.2258   47.6049 H       1  ZINC001013196242    0.0900
@<TRIPOS>BOND
     1     1     2    1
     2     1    27    1
     3     1    28    1
     4     1    29    1
     5     2     3    1
     6     2    17    1
     7     2     4    1
     8     4     5    1
     9     4    30    1
    10     4    31    1
    11     5     6    1
    12     5     7    1
    13     5    16    1
    14     7     8   am
    15     7    32    1
    16     8     9    2
    17     8    10    1
    18    10    15    1
    19    10    11    1
    20    10    33    1
    21    11    12    1
    22    11    34    1
    23    11    35    1
    24    12    14    1
    25    12    13    1
    26    12    15    1
    27    13    14    1
    28    13    36    1
    29    13    37    1
    30    14    38    1
    31    14    39    1
    32    15    40    1
    33    15    41    1
    34    16    17    1
    35    16    42    1
    36    16    43    1
    37    17    18   am
    38    18    19    2
    39    18    20    1
    40    20    25    1
    41    20    21    2
    42    21    22    1
    43    21    44    1
    44    22    23    1
    45    22    24    2
    46    24    25    1
    47    24    45    1
    48    25    26    1
    49    26    46    1
    50    26    47    1
    51    26    48    1
@<TRIPOS>SUBSTRUCTURE
     1 ZINC001013196242        1 TEMP              0 ****  ****    0 ROOT


##########                                Name:    ZINC000081577146
##########                DOCK_Rotatable_Bonds:                   4
##########                         Heavy_Atoms:                  25
##########                    Molecular_Weight:             355.464
##########                DOCK_Rotatable_Bonds:                   4
##########                       Formal_Charge:                0.02
##########                     HBond_Acceptors:                   7
##########                        HBond_Donors:                   0
##########                         Heavy_Atoms:                  25
##########                          Grid_Score:          -29.564667
##########                     Grid_vdw_energy:          -28.965244
##########                      Grid_es_energy:           -0.599423
##########           Internal_energy_repulsive:           11.747194

@<TRIPOS>MOLECULE
ZINC000081577146
 46 49 1 0 0
SMALL
USER_CHARGES


@<TRIPOS>ATOM
      1 C1         -1.8877    1.3917   48.6443 C.3     1  ZINC000081577146   -0.0700
      2 C2         -3.0472    1.8273   49.5028 C.2     1  ZINC000081577146    0.2900
      3 N3         -3.3845    3.0811   49.5896 N.2     1  ZINC000081577146   -0.4800
      4 S4         -4.7177    3.1287   50.6425 S.3     1  ZINC000081577146    0.1900
      5 C5         -4.7433    1.4265   50.9088 C.2     1  ZINC000081577146    0.2700
      6 N6         -5.6181    0.7122   51.7073 N.3     1  ZINC000081577146   -0.4300
      7 C7         -6.7237    0.1587   50.9132 C.3     1  ZINC000081577146    0.0700
      8 C8         -7.6231   -0.6883   51.8165 C.3     1  ZINC000081577146    0.0500
      9 N9         -8.1328    0.1441   52.9151 N.3     1  ZINC000081577146   -0.5200
     10 C10        -9.0618   -0.6145   53.7632 C.3     1  ZINC000081577146    0.1900
     11 H11        -8.6618   -1.6134   53.9372 H       1  ZINC000081577146    0.0700
     12 C12       -10.4182   -0.7231   53.0635 C.3     1  ZINC000081577146   -0.1500
     13 C13        -9.2321    0.0951   55.0816 C.2     1  ZINC000081577146    0.1900
     14 N14        -9.7274    1.2908   55.2389 N.2     1  ZINC000081577146   -0.4500
     15 C15        -9.7249    1.5936   56.5457 C.2     1  ZINC000081577146   -0.0200
     16 C16        -9.2035    0.5309   57.2106 C.2     1  ZINC000081577146    0.0000
     17 C17        -9.0067    0.4156   58.6711 C.ar    1  ZINC000081577146   -0.0200
     18 C18        -8.7226   -0.8250   59.2442 C.ar    1  ZINC000081577146   -0.1000
     19 C19        -8.5396   -0.9256   60.6080 C.ar    1  ZINC000081577146   -0.1200
     20 C20        -8.6377    0.1996   61.4071 C.ar    1  ZINC000081577146   -0.1100
     21 C21        -8.9195    1.4321   60.8453 C.ar    1  ZINC000081577146   -0.1100
     22 C22        -9.0986    1.5476   59.4823 C.ar    1  ZINC000081577146   -0.0900
     23 O23        -8.9042   -0.4034   56.2813 O.3     1  ZINC000081577146   -0.2000
     24 C24        -7.0271    0.6977   53.7094 C.3     1  ZINC000081577146    0.0600
     25 C25        -6.1277    1.5447   52.8059 C.3     1  ZINC000081577146    0.0500
     26 N26        -3.7525    0.9534   50.1827 N.2     1  ZINC000081577146   -0.5400
     27 H27        -2.2426    1.1759   47.6366 H       1  ZINC000081577146    0.0900
     28 H28        -1.1451    2.1887   48.6050 H       1  ZINC000081577146    0.0900
     29 H29        -1.4366    0.4955   49.0704 H       1  ZINC000081577146    0.0900
     30 H30        -7.3053    0.9736   50.4820 H       1  ZINC000081577146    0.0700
     31 H31        -6.3213   -0.4638   50.1140 H       1  ZINC000081577146    0.1100
     32 H32        -8.4599   -1.0762   51.2358 H       1  ZINC000081577146    0.1000
     33 H33        -7.0483   -1.5189   52.2261 H       1  ZINC000081577146    0.0600
     34 H34       -10.8183    0.2757   52.8895 H       1  ZINC000081577146    0.0800
     35 H35       -10.2950   -1.2365   52.1099 H       1  ZINC000081577146    0.0800
     36 H36       -11.1075   -1.2861   53.6927 H       1  ZINC000081577146    0.0700
     37 H37       -10.0740    2.5148   56.9882 H       1  ZINC000081577146    0.1900
     38 H38        -8.6465   -1.7041   58.6217 H       1  ZINC000081577146    0.1300
     39 H39        -8.3197   -1.8849   61.0528 H       1  ZINC000081577146    0.1300
     40 H40        -8.4939    0.1153   62.4742 H       1  ZINC000081577146    0.1300
     41 H41        -8.9954    2.3064   61.4748 H       1  ZINC000081577146    0.1300
     42 H42        -9.3182    2.5104   59.0449 H       1  ZINC000081577146    0.1300
     43 H43        -7.4295    1.3202   54.5085 H       1  ZINC000081577146    0.0900
     44 H44        -6.4455   -0.1172   54.1404 H       1  ZINC000081577146    0.0500
     45 H45        -5.2909    1.9326   53.3867 H       1  ZINC000081577146    0.1000
     46 H46        -6.7025    2.3752   52.3963 H       1  ZINC000081577146    0.0800
@<TRIPOS>BOND
     1     1     2    1
     2     1    27    1
     3     1    28    1
     4     1    29    1
     5     2    26    1
     6     2     3    2
     7     3     4    1
     8     4     5    1
     9     5     6    1
    10     5    26    2
    11     6    25    1
    12     6     7    1
    13     7     8    1
    14     7    30    1
    15     7    31    1
    16     8     9    1
    17     8    32    1
    18     8    33    1
    19     9    10    1
    20     9    24    1
    21    10    11    1
    22    10    12    1
    23    10    13    1
    24    12    34    1
    25    12    35    1
    26    12    36    1
    27    13    23    1
    28    13    14    2
    29    14    15    1
    30    15    16    2
    31    15    37    1
    32    16    17    1
    33    16    23    1
    34    17    22   ar
    35    17    18   ar
    36    18    19   ar
    37    18    38    1
    38    19    20   ar
    39    19    39    1
    40    20    21   ar
    41    20    40    1
    42    21    22   ar
    43    21    41    1
    44    22    42    1
    45    24    25    1
    46    24    43    1
    47    24    44    1
    48    25    45    1
    49    25    46    1
@<TRIPOS>SUBSTRUCTURE
     1 ZINC000081577146        1 TEMP              0 ****  ****    0 ROOT


##########                                Name:    ZINC000285228948
##########                DOCK_Rotatable_Bonds:                   8
##########                         Heavy_Atoms:                  23
##########                    Molecular_Weight:             339.822
##########                DOCK_Rotatable_Bonds:                   8
##########                       Formal_Charge:           0.0299997
##########                     HBond_Acceptors:                   7
##########                        HBond_Donors:                   3
##########                         Heavy_Atoms:                  23
##########                          Grid_Score:          -29.536865
##########                     Grid_vdw_energy:          -28.134531
##########                      Grid_es_energy:           -1.402335
##########           Internal_energy_repulsive:           23.440964

@<TRIPOS>MOLECULE
ZINC000285228948
 45 46 1 0 0
SMALL
USER_CHARGES


@<TRIPOS>ATOM
      1 C1         -7.7691    3.8187   51.0563 C.3     1  <0>        -0.1600
      2 C2         -7.2981    2.3702   50.9116 C.3     1  <0>         0.1800
      3 H3         -7.5135    2.0171   49.9031 H       1  <0>         0.1100
      4 C4         -8.0204    1.5048   51.9119 C.ar    1  <0>        -0.0900
      5 C5         -9.0597    2.0302   52.6569 C.ar    1  <0>        -0.1000
      6 C6         -9.7225    1.2371   53.5744 C.ar    1  <0>        -0.1100
      7 C7         -9.3456   -0.0829   53.7473 C.ar    1  <0>        -0.0300
      8 Cl8       -10.1780   -1.0799   54.8992 Cl      1  <0>        -0.0700
      9 C9         -8.3054   -0.6081   53.0014 C.ar    1  <0>        -0.1100
     10 C10        -7.6471    0.1845   52.0801 C.ar    1  <0>        -0.0900
     11 N11        -5.8554    2.2991   51.1562 N.am    1  <0>        -0.6100
     12 C12        -5.3344    2.4551   52.5165 C.3     1  <0>         0.0600
     13 C13        -5.0074    2.0901   50.1296 C.2     1  <0>         0.5200
     14 O14        -5.4389    1.9593   49.0036 O.2     1  <0>        -0.5200
     15 C15        -3.5232    2.0187   50.3808 C.3     1  <0>         0.0300
     16 N16        -2.8440    1.5402   49.1693 N.3     1  <0>        -0.4900
     17 C17        -1.5078    0.9794   49.4947 C.3     1  <0>         0.0400
     18 C18        -0.7622    1.0292   48.1374 C.3     1  <0>        -0.1400
     19 C19        -1.2622    2.3540   47.5169 C.3     1  <0>         0.1100
     20 O20        -0.3233    3.4027   47.7637 O.3     1  <0>        -0.5400
     21 C21        -1.4816    2.1876   46.0352 C.2     1  <0>         0.5000
     22 N22        -2.6769    1.7697   45.5737 N.am    1  <0>        -0.8500
     23 O23        -0.5824    2.4299   45.2581 O.2     1  <0>        -0.5200
     24 C24        -2.5958    2.6525   48.2266 C.3     1  <0>         0.0600
     25 H25        -8.8425    3.8716   50.8744 H       1  <0>         0.0700
     26 H26        -7.5536    4.1718   52.0648 H       1  <0>         0.0600
     27 H27        -7.2467    4.4446   50.3329 H       1  <0>         0.0700
     28 H28        -9.3535    3.0606   52.5221 H       1  <0>         0.1400
     29 H29       -10.5342    1.6477   54.1566 H       1  <0>         0.1300
     30 H30        -8.0106   -1.6383   53.1361 H       1  <0>         0.1400
     31 H31        -6.8353   -0.2255   51.4976 H       1  <0>         0.1300
     32 H32        -5.3194    1.4851   53.0133 H       1  <0>         0.0600
     33 H33        -4.3222    2.8573   52.4740 H       1  <0>         0.0800
     34 H34        -5.9740    3.1392   53.0742 H       1  <0>         0.0800
     35 H35        -3.1504    3.0099   50.6390 H       1  <0>         0.1100
     36 H36        -3.3266    1.3310   51.2033 H       1  <0>         0.0700
     37 H37        -1.0006    1.5981   50.2350 H       1  <0>         0.0400
     38 H38        -1.5972   -0.0483   49.8470 H       1  <0>         0.1200
     39 H39         0.3166    1.0579   48.2906 H       1  <0>         0.0900
     40 H40        -1.0417    0.1809   47.5124 H       1  <0>         0.0900
     41 H41         0.2463    3.2484   48.5297 H       1  <0>         0.3800
     42 H42        -2.8178    1.6615   44.6202 H       1  <0>         0.4000
     43 H43        -3.3963    1.5771   46.1953 H       1  <0>         0.4100
     44 H44        -3.4020    2.7061   47.4949 H       1  <0>         0.1100
     45 H45        -2.5234    3.5931   48.7727 H       1  <0>         0.0700
@<TRIPOS>BOND
     1     1     2    1
     2     1    25    1
     3     1    26    1
     4     1    27    1
     5     2     3    1
     6     2     4    1
     7     2    11    1
     8     4    10   ar
     9     4     5   ar
    10     5     6   ar
    11     5    28    1
    12     6     7   ar
    13     6    29    1
    14     7     8    1
    15     7     9   ar
    16     9    10   ar
    17     9    30    1
    18    10    31    1
    19    11    12    1
    20    11    13   am
    21    12    32    1
    22    12    33    1
    23    12    34    1
    24    13    14    2
    25    13    15    1
    26    15    16    1
    27    15    35    1
    28    15    36    1
    29    16    24    1
    30    16    17    1
    31    17    18    1
    32    17    37    1
    33    17    38    1
    34    18    19    1
    35    18    39    1
    36    18    40    1
    37    19    20    1
    38    19    21    1
    39    19    24    1
    40    20    41    1
    41    21    22   am
    42    21    23    2
    43    22    42    1
    44    22    43    1
    45    24    44    1
    46    24    45    1
@<TRIPOS>SUBSTRUCTURE
     1 <0>         1 TEMP              0 ****  ****    0 ROOT


##########                                Name:    ZINC000012979878
##########                DOCK_Rotatable_Bonds:                   7
##########                         Heavy_Atoms:                  26
##########                    Molecular_Weight:             388.874
##########                DOCK_Rotatable_Bonds:                   7
##########                       Formal_Charge:          -0.0100003
##########                     HBond_Acceptors:                   7
##########                        HBond_Donors:                   1
##########                         Heavy_Atoms:                  26
##########                          Grid_Score:          -29.461651
##########                     Grid_vdw_energy:          -29.318342
##########                      Grid_es_energy:           -0.143309
##########           Internal_energy_repulsive:            9.544218

@<TRIPOS>MOLECULE
ZINC000012979878
 43 45 1 0 0
SMALL
USER_CHARGES


@<TRIPOS>ATOM
      1 C1        -12.7746    0.1955   62.0841 C.3     1  <0>         0.0300
      2 O2        -13.5364   -1.0135   62.0792 O.3     1  <0>        -0.3100
      3 C3        -13.5310   -1.7414   60.9316 C.ar    1  <0>         0.1500
      4 C4        -14.2560   -2.9223   60.8551 C.ar    1  <0>        -0.2200
      5 C5        -14.2511   -3.6640   59.6889 C.ar    1  <0>        -0.0600
      6 C6        -13.5254   -3.2326   58.5959 C.ar    1  <0>        -0.1800
      7 C7        -12.7976   -2.0509   58.6668 C.ar    1  <0>         0.1800
      8 N8        -12.0627   -1.6140   57.5602 N.am    1  <0>        -0.6700
      9 C9        -10.7180   -1.5516   57.6262 C.2     1  <0>         0.6000
     10 O10       -10.1434   -1.8755   58.6489 O.2     1  <0>        -0.4900
     11 C11        -9.9473   -1.0934   56.4658 C.2     1  <0>        -0.3000
     12 C12        -9.0442   -0.0808   56.4544 C.2     1  <0>         0.1600
     13 C13        -8.7076    0.7298   57.6794 C.3     1  <0>        -0.0900
     14 N14        -8.4900    0.1306   55.2871 N.2     1  <0>        -0.4500
     15 C15        -8.8583   -0.6303   54.3070 C.2     1  <0>         0.0600
     16 C16        -8.3311   -0.5344   52.8985 C.3     1  <0>         0.1300
     17 O17        -6.9025   -0.5621   52.9217 O.3     1  <0>        -0.3000
     18 C18        -6.2551    0.4050   52.2195 C.ar    1  <0>         0.1300
     19 C19        -6.1658    0.3180   50.8379 C.ar    1  <0>        -0.2000
     20 C20        -5.5073    1.3018   50.1259 C.ar    1  <0>        -0.0700
     21 C21        -4.9368    2.3733   50.7900 C.ar    1  <0>        -0.0700
     22 Cl22       -4.1094    3.6081   49.8932 Cl      1  <0>        -0.0700
     23 C23        -5.0253    2.4620   52.1680 C.ar    1  <0>        -0.0700
     24 C24        -5.6879    1.4831   52.8830 C.ar    1  <0>        -0.1300
     25 S25       -10.0224   -1.7641   54.8381 S.3     1  <0>         0.2000
     26 C26       -12.8059   -1.3020   59.8350 C.ar    1  <0>        -0.1500
     27 H27       -11.7273   -0.0342   61.8879 H       1  <0>         0.0600
     28 H28       -13.1508    0.8652   61.3107 H       1  <0>         0.0600
     29 H29       -12.8648    0.6778   63.0575 H       1  <0>         0.1000
     30 H30       -14.8244   -3.2623   61.7082 H       1  <0>         0.1300
     31 H31       -14.8156   -4.5830   59.6323 H       1  <0>         0.1300
     32 H32       -13.5232   -3.8140   57.6858 H       1  <0>         0.1300
     33 H33       -12.5207   -1.3557   56.7451 H       1  <0>         0.4100
     34 H34        -7.8782    0.2607   58.2089 H       1  <0>         0.0900
     35 H35        -8.4234    1.7389   57.3806 H       1  <0>         0.0800
     36 H36        -9.5772    0.7762   58.3347 H       1  <0>         0.1000
     37 H37        -8.7013   -1.3766   52.3139 H       1  <0>         0.0900
     38 H38        -8.6692    0.3982   52.4467 H       1  <0>         0.1000
     39 H39        -6.6102   -0.5186   50.3193 H       1  <0>         0.1400
     40 H40        -5.4375    1.2344   49.0503 H       1  <0>         0.1400
     41 H41        -4.5797    3.2993   52.6846 H       1  <0>         0.1400
     42 H42        -5.7567    1.5527   53.9585 H       1  <0>         0.1400
     43 H43       -12.2415   -0.3831   59.8926 H       1  <0>         0.1400
@<TRIPOS>BOND
     1     1     2    1
     2     1    27    1
     3     1    28    1
     4     1    29    1
     5     2     3    1
     6     3    26   ar
     7     3     4   ar
     8     4     5   ar
     9     4    30    1
    10     5     6   ar
    11     5    31    1
    12     6     7   ar
    13     6    32    1
    14     7     8    1
    15     7    26   ar
    16     8     9   am
    17     8    33    1
    18     9    10    2
    19     9    11    1
    20    11    25    1
    21    11    12    2
    22    12    13    1
    23    12    14    1
    24    13    34    1
    25    13    35    1
    26    13    36    1
    27    14    15    2
    28    15    16    1
    29    15    25    1
    30    16    17    1
    31    16    37    1
    32    16    38    1
    33    17    18    1
    34    18    24   ar
    35    18    19   ar
    36    19    20   ar
    37    19    39    1
    38    20    21   ar
    39    20    40    1
    40    21    22    1
    41    21    23   ar
    42    23    24   ar
    43    23    41    1
    44    24    42    1
    45    26    43    1
@<TRIPOS>SUBSTRUCTURE
     1 <0>         1 TEMP              0 ****  ****    0 ROOT


##########                                Name:    ZINC001217683559
##########                DOCK_Rotatable_Bonds:                   3
##########                         Heavy_Atoms:                  25
##########                    Molecular_Weight:             397.234
##########                DOCK_Rotatable_Bonds:                   3
##########                       Formal_Charge:          0.00999987
##########                     HBond_Acceptors:                   7
##########                        HBond_Donors:                   0
##########                         Heavy_Atoms:                  25
##########                          Grid_Score:          -29.460997
##########                     Grid_vdw_energy:          -29.681665
##########                      Grid_es_energy:            0.220668
##########           Internal_energy_repulsive:           29.241081

@<TRIPOS>MOLECULE
ZINC001217683559
 38 42 1 0 0
SMALL
USER_CHARGES


@<TRIPOS>ATOM
      1 Br1        -8.1270    1.1192   56.1646 Br      1  ZINC001217683559    0.0100
      2 C2         -9.0383    0.3672   54.6881 C.ar    1  ZINC001217683559   -0.1200
      3 C3        -10.2700   -0.2442   54.8594 C.ar    1  ZINC001217683559   -0.0500
      4 C4        -10.9019   -0.7820   53.7481 C.ar    1  ZINC001217683559   -0.1500
      5 C5        -10.2899   -0.6936   52.5108 C.ar    1  ZINC001217683559    0.1200
      6 N6         -9.1183   -0.1074   52.3759 N.ar    1  ZINC001217683559   -0.4400
      7 C7         -8.4834    0.4250   53.4112 C.ar    1  ZINC001217683559    0.2200
      8 C8         -7.1640    1.0759   53.2106 C.2     1  ZINC001217683559    0.2100
      9 N9         -6.5164    1.8002   54.0864 N.2     1  ZINC001217683559   -0.3300
     10 O10        -5.4672    2.1892   53.6189 O.3     1  ZINC001217683559    0.1000
     11 C11        -5.3331    1.7407   52.3609 C.2     1  ZINC001217683559    0.2300
     12 C12        -4.1964    1.9949   51.4521 C.2     1  ZINC001217683559   -0.0600
     13 C13        -4.0833    1.2935   50.2851 C.2     1  ZINC001217683559    0.1800
     14 N14        -3.0430    1.5205   49.4454 N.pl3   1  ZINC001217683559   -0.2900
     15 N15        -2.6720    0.9695   48.2104 N.2     1  ZINC001217683559   -0.3300
     16 C16        -1.5632    1.5651   47.8400 C.2     1  ZINC001217683559    0.2800
     17 C17        -0.8091    1.2815   46.5666 C.3     1  ZINC001217683559   -0.0300
     18 C18        -0.9421   -0.1722   46.0826 C.3     1  ZINC001217683559   -0.1200
     19 C19        -1.0456    0.3947   44.6568 C.3     1  ZINC001217683559   -0.1400
     20 C20        -1.5709    1.6916   45.2952 C.3     1  ZINC001217683559   -0.1200
     21 N21        -1.2078    2.4551   48.7561 N.2     1  ZINC001217683559   -0.5300
     22 C22        -2.0898    2.4525   49.7486 C.2     1  ZINC001217683559    0.2900
     23 C23        -2.1827    3.1897   50.9451 C.2     1  ZINC001217683559   -0.1000
     24 C24        -3.2263    2.9691   51.7864 C.2     1  ZINC001217683559   -0.0200
     25 N25        -6.4094    1.0243   52.0932 N.2     1  ZINC001217683559   -0.4300
     26 H26       -10.7272   -0.3008   55.8362 H       1  ZINC001217683559    0.1600
     27 H27       -11.8625   -1.2655   53.8479 H       1  ZINC001217683559    0.1500
     28 H28       -10.7794   -1.1115   51.6434 H       1  ZINC001217683559    0.1800
     29 H29        -4.8271    0.5532   50.0300 H       1  ZINC001217683559    0.1900
     30 H30         0.2193    1.6415   46.5945 H       1  ZINC001217683559    0.1200
     31 H31        -0.0472   -0.7717   46.2502 H       1  ZINC001217683559    0.0700
     32 H32        -1.8526   -0.6645   46.4240 H       1  ZINC001217683559    0.1000
     33 H33        -0.0813    0.5111   44.1621 H       1  ZINC001217683559    0.0800
     34 H34        -1.7820   -0.1159   44.0364 H       1  ZINC001217683559    0.0800
     35 H35        -2.6535    1.7087   45.4212 H       1  ZINC001217683559    0.0900
     36 H36        -1.1839    2.5966   44.8270 H       1  ZINC001217683559    0.0700
     37 H37        -1.4325    3.9270   51.1901 H       1  ZINC001217683559    0.1700
     38 H38        -3.3103    3.5270   52.7073 H       1  ZINC001217683559    0.1700
@<TRIPOS>BOND
     1     1     2    1
     2     2     7   ar
     3     2     3   ar
     4     3     4   ar
     5     3    26    1
     6     4     5   ar
     7     4    27    1
     8     5     6   ar
     9     5    28    1
    10     6     7   ar
    11     7     8    1
    12     8    25    1
    13     8     9    2
    14     9    10    1
    15    10    11    1
    16    11    12    1
    17    11    25    2
    18    12    24    1
    19    12    13    2
    20    13    14    1
    21    13    29    1
    22    14    22    1
    23    14    15    1
    24    15    16    2
    25    16    17    1
    26    16    21    1
    27    17    20    1
    28    17    18    1
    29    17    30    1
    30    18    19    1
    31    18    31    1
    32    18    32    1
    33    19    20    1
    34    19    33    1
    35    19    34    1
    36    20    35    1
    37    20    36    1
    38    21    22    2
    39    22    23    1
    40    23    24    2
    41    23    37    1
    42    24    38    1
@<TRIPOS>SUBSTRUCTURE
     1 ZINC001217683559        1 TEMP              0 ****  ****    0 ROOT


##########                                Name:    ZINC000822449555
##########                DOCK_Rotatable_Bonds:                   5
##########                         Heavy_Atoms:                  27
##########                    Molecular_Weight:             366.383
##########                DOCK_Rotatable_Bonds:                   5
##########                       Formal_Charge:          -0.0100009
##########                     HBond_Acceptors:                  10
##########                        HBond_Donors:                   2
##########                         Heavy_Atoms:                  27
##########                          Grid_Score:          -29.444759
##########                     Grid_vdw_energy:          -29.065027
##########                      Grid_es_energy:           -0.379733
##########           Internal_energy_repulsive:            9.510148

@<TRIPOS>MOLECULE
ZINC000822449555
 45 48 1 0 0
SMALL
USER_CHARGES


@<TRIPOS>ATOM
      1 C1        -10.0585    1.5459   57.6050 C.3     1  ZINC000822449555   -0.1100
      2 C2        -10.6195    0.1513   57.4969 C.ar    1  ZINC000822449555    0.1400
      3 N3        -11.6139   -0.2143   58.2830 N.ar    1  ZINC000822449555   -0.5000
      4 C4        -12.1377   -1.4286   58.2229 C.ar    1  ZINC000822449555    0.3000
      5 N5        -13.1865   -1.7686   59.0730 N.3     1  ZINC000822449555   -0.4700
      6 C6        -12.7271   -2.6643   60.1444 C.3     1  ZINC000822449555    0.0200
      7 C7        -13.8951   -2.9642   61.0876 C.3     1  ZINC000822449555    0.0600
      8 O8        -14.9748   -3.5269   60.3372 O.3     1  ZINC000822449555   -0.3800
      9 C9        -15.4477   -2.6807   59.2857 C.3     1  ZINC000822449555    0.0600
     10 C10       -14.2953   -2.3779   58.3243 C.3     1  ZINC000822449555    0.0300
     11 C11       -11.6524   -2.3683   57.3199 C.ar    1  ZINC000822449555   -0.1700
     12 C12       -10.6104   -2.0206   56.4799 C.ar    1  ZINC000822449555   -0.0500
     13 C13       -10.0880   -0.7312   56.5685 C.ar    1  ZINC000822449555    0.0600
     14 N14        -9.0320   -0.3352   55.7373 N.am    1  ZINC000822449555   -0.6600
     15 C15        -9.2341   -0.1931   54.4124 C.2     1  ZINC000822449555    0.5700
     16 O16       -10.3328   -0.4088   53.9383 O.2     1  ZINC000822449555   -0.5100
     17 C17        -8.1208    0.2243   53.5362 C.ar    1  ZINC000822449555   -0.1800
     18 C18        -6.9412    0.7452   54.0854 C.ar    1  ZINC000822449555   -0.0100
     19 C19        -5.9277    1.1220   53.2263 C.ar    1  ZINC000822449555   -0.1300
     20 C20        -6.1097    0.9729   51.8521 C.ar    1  ZINC000822449555    0.2300
     21 C21        -5.0261    1.3751   50.9224 C.2     1  ZINC000822449555    0.2100
     22 N22        -5.0644    1.3380   49.6047 N.2     1  ZINC000822449555   -0.2500
     23 N23        -3.9320    1.7681   49.1652 N.pl3   1  ZINC000822449555   -0.2200
     24 N24        -3.1775    2.0765   50.1616 N.2     1  ZINC000822449555   -0.0400
     25 N25        -3.8188    1.8526   51.2581 N.2     1  ZINC000822449555   -0.2500
     26 N26        -7.2399    0.4753   51.3646 N.ar    1  ZINC000822449555   -0.4500
     27 C27        -8.2264    0.1000   52.1490 C.ar    1  ZINC000822449555    0.1400
     28 H28       -10.6018    2.2092   56.9319 H       1  ZINC000822449555    0.0800
     29 H29       -10.1647    1.9019   58.6298 H       1  ZINC000822449555    0.0800
     30 H30        -9.0035    1.5354   57.3315 H       1  ZINC000822449555    0.0700
     31 H31       -12.3623   -3.5948   59.7095 H       1  ZINC000822449555    0.0600
     32 H32       -11.9236   -2.1828   60.7018 H       1  ZINC000822449555    0.1000
     33 H33       -13.5740   -3.6730   61.8507 H       1  ZINC000822449555    0.1100
     34 H34       -14.2250   -2.0406   61.5634 H       1  ZINC000822449555    0.0600
     35 H35       -16.2494   -3.1845   58.7458 H       1  ZINC000822449555    0.1000
     36 H36       -15.8227   -1.7489   59.7091 H       1  ZINC000822449555    0.0600
     37 H37       -14.6365   -1.6875   57.5530 H       1  ZINC000822449555    0.1000
     38 H38       -13.9557   -3.3040   57.8603 H       1  ZINC000822449555    0.0600
     39 H39       -12.0837   -3.3575   57.2754 H       1  ZINC000822449555    0.1400
     40 H40       -10.2131   -2.7301   55.7690 H       1  ZINC000822449555    0.1500
     41 H41        -8.1554   -0.1633   56.1155 H       1  ZINC000822449555    0.4100
     42 H42        -6.8279    0.8498   55.1543 H       1  ZINC000822449555    0.1600
     43 H43        -5.0051    1.5275   53.6144 H       1  ZINC000822449555    0.1600
     44 H44        -3.6866    1.8472   48.2302 H       1  ZINC000822449555    0.4800
     45 H45        -9.1308   -0.3006   51.7156 H       1  ZINC000822449555    0.1700
@<TRIPOS>BOND
     1     1     2    1
     2     1    28    1
     3     1    29    1
     4     1    30    1
     5     2    13   ar
     6     2     3   ar
     7     3     4   ar
     8     4     5    1
     9     4    11   ar
    10     5    10    1
    11     5     6    1
    12     6     7    1
    13     6    31    1
    14     6    32    1
    15     7     8    1
    16     7    33    1
    17     7    34    1
    18     8     9    1
    19     9    10    1
    20     9    35    1
    21     9    36    1
    22    10    37    1
    23    10    38    1
    24    11    12   ar
    25    11    39    1
    26    12    13   ar
    27    12    40    1
    28    13    14    1
    29    14    15   am
    30    14    41    1
    31    15    16    2
    32    15    17    1
    33    17    27   ar
    34    17    18   ar
    35    18    19   ar
    36    18    42    1
    37    19    20   ar
    38    19    43    1
    39    20    21    1
    40    20    26   ar
    41    21    25    1
    42    21    22    2
    43    22    23    1
    44    23    24    1
    45    23    44    1
    46    24    25    2
    47    26    27   ar
    48    27    45    1
@<TRIPOS>SUBSTRUCTURE
     1 ZINC000822449555        1 TEMP              0 ****  ****    0 ROOT


##########                                Name:    ZINC000179211660
##########                DOCK_Rotatable_Bonds:                   6
##########                         Heavy_Atoms:                  23
##########                    Molecular_Weight:             385.208
##########                DOCK_Rotatable_Bonds:                   6
##########                       Formal_Charge:        -1.78814e-07
##########                     HBond_Acceptors:                   6
##########                        HBond_Donors:                   1
##########                         Heavy_Atoms:                  23
##########                          Grid_Score:          -29.438805
##########                     Grid_vdw_energy:          -27.990316
##########                      Grid_es_energy:           -1.448488
##########           Internal_energy_repulsive:           16.369974

@<TRIPOS>MOLECULE
ZINC000179211660
 38 39 1 0 0
SMALL
USER_CHARGES


@<TRIPOS>ATOM
      1 C1          2.0831    2.3710   45.7509 C.3     1  ZINC000179211660    0.0300
      2 O2          0.7963    1.8973   45.3488 O.3     1  ZINC000179211660   -0.2700
      3 C3          0.7548    1.0506   44.2865 C.ar    1  ZINC000179211660    0.1500
      4 C4          1.9143    0.7630   43.5816 C.ar    1  ZINC000179211660   -0.2200
      5 C5          1.8696   -0.0985   42.5023 C.ar    1  ZINC000179211660   -0.0700
      6 C6          0.6705   -0.6733   42.1245 C.ar    1  ZINC000179211660   -0.1700
      7 C7         -0.4870   -0.3878   42.8253 C.ar    1  ZINC000179211660   -0.0700
      8 C8         -0.4465    0.4680   43.9088 C.ar    1  ZINC000179211660   -0.1500
      9 C9         -1.7081    0.7782   44.6723 C.3     1  ZINC000179211660    0.1800
     10 N10        -1.5765    0.2960   46.0495 N.am    1  ZINC000179211660   -0.6200
     11 C11        -1.2045   -1.0977   46.3052 C.3     1  ZINC000179211660    0.0700
     12 C12        -1.7976    1.1346   47.0811 C.2     1  ZINC000179211660    0.7000
     13 O13        -2.1079    2.2910   46.8689 O.2     1  ZINC000179211660   -0.5300
     14 N14        -1.6749    0.6914   48.3480 N.am    1  ZINC000179211660   -0.6800
     15 C15        -1.9048    1.5631   49.4205 C.ar    1  ZINC000179211660    0.1900
     16 C16        -3.1021    2.2591   49.5058 C.ar    1  ZINC000179211660   -0.1400
     17 C17        -3.3269    3.1191   50.5663 C.ar    1  ZINC000179211660    0.1500
     18 F18        -4.4925    3.7971   50.6501 F       1  ZINC000179211660   -0.1100
     19 C19        -2.3580    3.2850   51.5423 C.ar    1  ZINC000179211660   -0.1300
     20 Br20       -2.6688    4.4606   52.9907 Br      1  ZINC000179211660   -0.0100
     21 C21        -1.1635    2.5916   51.4595 C.ar    1  ZINC000179211660   -0.0700
     22 C22        -0.9359    1.7279   50.4043 C.ar    1  ZINC000179211660    0.0600
     23 F23         0.2307    1.0512   50.3241 F       1  ZINC000179211660   -0.1300
     24 H24         1.9740    3.0365   46.6073 H       1  ZINC000179211660    0.1000
     25 H25         2.7121    1.5246   46.0262 H       1  ZINC000179211660    0.0500
     26 H26         2.5447    2.9135   44.9257 H       1  ZINC000179211660    0.0500
     27 H27         2.8513    1.2123   43.8760 H       1  ZINC000179211660    0.1300
     28 H28         2.7721   -0.3227   41.9532 H       1  ZINC000179211660    0.1200
     29 H29         0.6374   -1.3461   41.2803 H       1  ZINC000179211660    0.1200
     30 H30        -1.4227   -0.8378   42.5279 H       1  ZINC000179211660    0.1300
     31 H31        -1.8732    1.8556   44.6788 H       1  ZINC000179211660    0.0900
     32 H32        -2.5535    0.2840   44.1936 H       1  ZINC000179211660    0.1000
     33 H33        -0.1192   -1.1788   46.3662 H       1  ZINC000179211660    0.0600
     34 H34        -1.6469   -1.4251   47.2460 H       1  ZINC000179211660    0.0600
     35 H35        -1.5706   -1.7263   45.4933 H       1  ZINC000179211660    0.0800
     36 H36        -1.4275   -0.2310   48.5173 H       1  ZINC000179211660    0.4100
     37 H37        -3.8577    2.1301   48.7451 H       1  ZINC000179211660    0.1800
     38 H38        -0.4097    2.7227   52.2218 H       1  ZINC000179211660    0.1600
@<TRIPOS>BOND
     1     1     2    1
     2     1    24    1
     3     1    25    1
     4     1    26    1
     5     2     3    1
     6     3     8   ar
     7     3     4   ar
     8     4     5   ar
     9     4    27    1
    10     5     6   ar
    11     5    28    1
    12     6     7   ar
    13     6    29    1
    14     7     8   ar
    15     7    30    1
    16     8     9    1
    17     9    10    1
    18     9    31    1
    19     9    32    1
    20    10    11    1
    21    10    12   am
    22    11    33    1
    23    11    34    1
    24    11    35    1
    25    12    13    2
    26    12    14   am
    27    14    15    1
    28    14    36    1
    29    15    22   ar
    30    15    16   ar
    31    16    17   ar
    32    16    37    1
    33    17    18    1
    34    17    19   ar
    35    19    20    1
    36    19    21   ar
    37    21    22   ar
    38    21    38    1
    39    22    23    1
@<TRIPOS>SUBSTRUCTURE
     1 ZINC000179211660        1 TEMP              0 ****  ****    0 ROOT


##########                                Name:    ZINC001060578637
##########                DOCK_Rotatable_Bonds:                  10
##########                         Heavy_Atoms:                  25
##########                    Molecular_Weight:             345.401
##########                DOCK_Rotatable_Bonds:                  10
##########                       Formal_Charge:          -0.0400001
##########                     HBond_Acceptors:                   8
##########                        HBond_Donors:                   3
##########                         Heavy_Atoms:                  25
##########                          Grid_Score:          -29.432835
##########                     Grid_vdw_energy:          -27.830463
##########                      Grid_es_energy:           -1.602372
##########           Internal_energy_repulsive:            9.695341

@<TRIPOS>MOLECULE
ZINC001060578637
 48 49 1 0 0
SMALL
USER_CHARGES


@<TRIPOS>ATOM
      1 C1        -10.3575   -2.5614   60.0283 C.3     1  ZINC001060578637   -0.1500
      2 C2        -10.7126   -1.3739   59.1314 C.3     1  ZINC001060578637   -0.1300
      3 C3         -9.4812   -0.9584   58.3239 C.3     1  ZINC001060578637    0.0700
      4 H4         -8.5943   -1.4329   58.7438 H       1  ZINC001060578637    0.0900
      5 O5         -9.3327    0.4618   58.3789 O.3     1  ZINC001060578637   -0.3600
      6 C6         -7.9752    0.9018   58.4540 C.3     1  ZINC001060578637    0.0300
      7 C7         -9.6512   -1.3905   56.8903 C.2     1  ZINC001060578637    0.5000
      8 O8        -10.1722   -2.4557   56.6357 O.2     1  ZINC001060578637   -0.5200
      9 N9         -9.2241   -0.5932   55.8910 N.am    1  ZINC001060578637   -0.7300
     10 C10        -9.3908   -1.0125   54.4972 C.3     1  ZINC001060578637    0.1600
     11 C11        -8.7018   -0.0261   53.5900 C.ar    1  ZINC001060578637   -0.1100
     12 C12        -8.8016    1.3297   53.8403 C.ar    1  ZINC001060578637   -0.0900
     13 C13        -8.1695    2.2346   53.0081 C.ar    1  ZINC001060578637   -0.1100
     14 C14        -7.4373    1.7836   51.9258 C.ar    1  ZINC001060578637   -0.0900
     15 C15        -6.7486    2.7700   51.0182 C.3     1  ZINC001060578637    0.1800
     16 H16        -6.4953    3.6675   51.5827 H       1  ZINC001060578637    0.1000
     17 C17        -7.6828    3.1400   49.8645 C.3     1  ZINC001060578637   -0.1600
     18 N18        -5.5250    2.1687   50.4822 N.am    1  ZINC001060578637   -0.7000
     19 C19        -4.4500    2.9409   50.2279 C.2     1  ZINC001060578637    0.6100
     20 O20        -4.4963    4.1370   50.4419 O.2     1  ZINC001060578637   -0.5300
     21 C21        -3.2179    2.3354   49.6900 C.2     1  ZINC001060578637    0.1200
     22 N22        -2.1959    2.9756   49.1635 N.2     1  ZINC001060578637   -0.2400
     23 N23        -1.2997    2.1274   48.8017 N.2     1  ZINC001060578637   -0.2900
     24 C24        -1.6994    0.9097   49.0764 C.2     1  ZINC001060578637    0.1900
     25 N25        -2.9164    0.9985   49.6488 N.pl3   1  ZINC001060578637   -0.5500
     26 C26        -7.3364    0.4277   51.6763 C.ar    1  ZINC001060578637   -0.1100
     27 C27        -7.9652   -0.4773   52.5107 C.ar    1  ZINC001060578637   -0.0900
     28 H28       -11.2426   -2.8772   60.5805 H       1  ZINC001060578637    0.0600
     29 H29        -9.9991   -3.3869   59.4134 H       1  ZINC001060578637    0.0500
     30 H30        -9.5776   -2.2660   60.7303 H       1  ZINC001060578637    0.0600
     31 H31       -11.5140   -1.6600   58.4502 H       1  ZINC001060578637    0.0800
     32 H32       -11.0415   -0.5378   59.7485 H       1  ZINC001060578637    0.0800
     33 H33        -7.9434    1.9907   58.4144 H       1  ZINC001060578637    0.0900
     34 H34        -7.5335    0.5592   59.3898 H       1  ZINC001060578637    0.0500
     35 H35        -7.4132    0.4912   57.6151 H       1  ZINC001060578637    0.0400
     36 H36        -8.8062    0.2581   56.0947 H       1  ZINC001060578637    0.4000
     37 H37        -8.9516   -2.0006   54.3600 H       1  ZINC001060578637    0.0800
     38 H38       -10.4526   -1.0499   54.2536 H       1  ZINC001060578637    0.0800
     39 H39        -9.3736    1.6821   54.6859 H       1  ZINC001060578637    0.1300
     40 H40        -8.2481    3.2939   53.2032 H       1  ZINC001060578637    0.1300
     41 H41        -7.9361    2.2425   49.3001 H       1  ZINC001060578637    0.0600
     42 H42        -8.5933    3.5874   50.2633 H       1  ZINC001060578637    0.0700
     43 H43        -7.1847    3.8534   49.2081 H       1  ZINC001060578637    0.0700
     44 H44        -5.4884    1.2148   50.3104 H       1  ZINC001060578637    0.4100
     45 H45        -1.1508   -0.0001   48.8827 H       1  ZINC001060578637    0.2300
     46 H46        -3.4688    0.2655   49.9623 H       1  ZINC001060578637    0.4400
     47 H47        -6.7640    0.0754   50.8310 H       1  ZINC001060578637    0.1300
     48 H48        -7.8864   -1.5367   52.3157 H       1  ZINC001060578637    0.1300
@<TRIPOS>BOND
     1     1     2    1
     2     1    28    1
     3     1    29    1
     4     1    30    1
     5     2     3    1
     6     2    31    1
     7     2    32    1
     8     3     4    1
     9     3     5    1
    10     3     7    1
    11     5     6    1
    12     6    33    1
    13     6    34    1
    14     6    35    1
    15     7     8    2
    16     7     9   am
    17     9    10    1
    18     9    36    1
    19    10    11    1
    20    10    37    1
    21    10    38    1
    22    11    27   ar
    23    11    12   ar
    24    12    13   ar
    25    12    39    1
    26    13    14   ar
    27    13    40    1
    28    14    15    1
    29    14    26   ar
    30    15    16    1
    31    15    17    1
    32    15    18    1
    33    17    41    1
    34    17    42    1
    35    17    43    1
    36    18    19   am
    37    18    44    1
    38    19    20    2
    39    19    21    1
    40    21    25    1
    41    21    22    2
    42    22    23    1
    43    23    24    2
    44    24    25    1
    45    24    45    1
    46    25    46    1
    47    26    27   ar
    48    26    47    1
    49    27    48    1
@<TRIPOS>SUBSTRUCTURE
     1 ZINC001060578637        1 TEMP              0 ****  ****    0 ROOT


##########                                Name:    ZINC000053543817
##########                DOCK_Rotatable_Bonds:                   7
##########                         Heavy_Atoms:                  25
##########                    Molecular_Weight:             350.458
##########                DOCK_Rotatable_Bonds:                   7
##########                       Formal_Charge:           0.0199998
##########                     HBond_Acceptors:                   6
##########                        HBond_Donors:                   2
##########                         Heavy_Atoms:                  25
##########                          Grid_Score:          -29.405653
##########                     Grid_vdw_energy:          -29.817240
##########                      Grid_es_energy:            0.411587
##########           Internal_energy_repulsive:           34.334839

@<TRIPOS>MOLECULE
ZINC000053543817
 55 56 1 0 0
SMALL
USER_CHARGES


@<TRIPOS>ATOM
      1 C1        -13.4424   -5.1748   57.3335 C.3     1  ZINC000053543817   -0.0700
      2 C2        -13.5645   -3.9846   58.2499 C.2     1  ZINC000053543817   -0.0200
      3 C3        -12.6002   -3.0745   58.4913 C.2     1  ZINC000053543817   -0.1800
      4 C4        -13.1409   -2.1462   59.3991 C.2     1  ZINC000053543817   -0.1900
      5 C5        -14.4046   -2.5372   59.6630 C.2     1  ZINC000053543817    0.0000
      6 C6        -15.3352   -1.8029   60.5972 C.3     1  ZINC000053543817   -0.0300
      7 C7        -14.7770   -0.3937   60.8288 C.3     1  ZINC000053543817   -0.0500
      8 C8        -14.9187    0.4280   59.5459 C.3     1  ZINC000053543817   -0.1500
      9 C9        -15.5569    0.2843   61.9572 C.3     1  ZINC000053543817   -0.1400
     10 C10       -13.2982   -0.4856   61.2150 C.3     1  ZINC000053543817   -0.1200
     11 C11       -12.4798   -0.9315   59.9963 C.3     1  ZINC000053543817    0.2200
     12 H12       -12.4517   -0.1288   59.2595 H       1  ZINC000053543817    0.1000
     13 N13       -11.1160   -1.2662   60.4135 N.am    1  ZINC000053543817   -0.7100
     14 C14       -10.1977   -0.2907   60.5608 C.2     1  ZINC000053543817    0.5100
     15 O15       -10.5002    0.8640   60.3467 O.2     1  ZINC000053543817   -0.5300
     16 C16        -8.7953   -0.6350   60.9917 C.3     1  ZINC000053543817    0.1400
     17 H17        -8.1626    0.2487   60.9094 H       1  ZINC000053543817    0.1200
     18 C18        -8.2431   -1.7429   60.0927 C.3     1  ZINC000053543817   -0.1600
     19 N19        -8.8110   -1.0966   62.3820 N.am    1  ZINC000053543817   -0.7000
     20 C20        -8.6658   -0.2111   63.3877 C.2     1  ZINC000053543817    0.6600
     21 O21        -8.5202    0.9697   63.1412 O.2     1  ZINC000053543817   -0.5700
     22 O22        -8.6819   -0.6352   64.6654 O.3     1  ZINC000053543817   -0.3600
     23 C23        -8.5375    0.3760   65.6974 C.3     1  ZINC000053543817    0.1400
     24 C24        -8.5886   -0.2894   67.0741 C.3     1  ZINC000053543817   -0.1800
     25 C25        -7.1961    1.0916   65.5262 C.3     1  ZINC000053543817   -0.1400
     26 C26        -9.6760    1.3915   65.5793 C.3     1  ZINC000053543817   -0.1800
     27 O27       -14.6560   -3.6482   58.9604 O.3     1  ZINC000053543817   -0.1700
     28 H28       -14.3806   -5.7297   57.3318 H       1  ZINC000053543817    0.0800
     29 H29       -13.2203   -4.8337   56.3224 H       1  ZINC000053543817    0.0800
     30 H30       -12.6382   -5.8220   57.6836 H       1  ZINC000053543817    0.0800
     31 H31       -11.6059   -3.0610   58.0700 H       1  ZINC000053543817    0.1400
     32 H32       -16.3264   -1.7353   60.1486 H       1  ZINC000053543817    0.0900
     33 H33       -15.3950   -2.3341   61.5471 H       1  ZINC000053543817    0.0900
     34 H34       -15.9715    0.4946   59.2716 H       1  ZINC000053543817    0.0600
     35 H35       -14.5219    1.4298   59.7105 H       1  ZINC000053543817    0.0600
     36 H36       -14.3636   -0.0552   58.7420 H       1  ZINC000053543817    0.0600
     37 H37       -15.4566   -0.3012   62.8710 H       1  ZINC000053543817    0.0600
     38 H38       -15.1603    1.2861   62.1220 H       1  ZINC000053543817    0.0600
     39 H39       -16.6096    0.3510   61.6821 H       1  ZINC000053543817    0.0600
     40 H40       -12.9486    0.4909   61.5501 H       1  ZINC000053543817    0.0800
     41 H41       -13.1771   -1.2110   62.0196 H       1  ZINC000053543817    0.0700
     42 H42       -10.8738   -2.1900   60.5836 H       1  ZINC000053543817    0.4000
     43 H43        -8.2314   -1.3996   59.0583 H       1  ZINC000053543817    0.0800
     44 H44        -7.2287   -1.9921   60.4043 H       1  ZINC000053543817    0.0800
     45 H45        -8.8758   -2.6268   60.1750 H       1  ZINC000053543817    0.0700
     46 H46        -8.9261   -2.0394   62.5788 H       1  ZINC000053543817    0.4200
     47 H47        -7.7775   -1.0128   67.1583 H       1  ZINC000053543817    0.0600
     48 H48        -8.4802    0.4696   67.8489 H       1  ZINC000053543817    0.0700
     49 H49        -9.5443   -0.7992   67.1961 H       1  ZINC000053543817    0.0900
     50 H50        -7.1598    1.5657   64.5454 H       1  ZINC000053543817    0.0700
     51 H51        -7.0878    1.8507   66.3010 H       1  ZINC000053543817    0.0800
     52 H52        -6.3851    0.3682   65.6104 H       1  ZINC000053543817    0.0700
     53 H53       -10.6316    0.8816   65.7012 H       1  ZINC000053543817    0.0900
     54 H54        -9.5676    2.1505   66.3539 H       1  ZINC000053543817    0.0700
     55 H55        -9.6396    1.8655   64.5985 H       1  ZINC000053543817    0.0600
@<TRIPOS>BOND
     1     1     2    1
     2     1    28    1
     3     1    29    1
     4     1    30    1
     5     2    27    1
     6     2     3    2
     7     3     4    1
     8     3    31    1
     9     4    11    1
    10     4     5    2
    11     5     6    1
    12     5    27    1
    13     6     7    1
    14     6    32    1
    15     6    33    1
    16     7     8    1
    17     7     9    1
    18     7    10    1
    19     8    34    1
    20     8    35    1
    21     8    36    1
    22     9    37    1
    23     9    38    1
    24     9    39    1
    25    10    11    1
    26    10    40    1
    27    10    41    1
    28    11    12    1
    29    11    13    1
    30    13    14   am
    31    13    42    1
    32    14    15    2
    33    14    16    1
    34    16    17    1
    35    16    18    1
    36    16    19    1
    37    18    43    1
    38    18    44    1
    39    18    45    1
    40    19    20   am
    41    19    46    1
    42    20    21    2
    43    20    22    1
    44    22    23    1
    45    23    24    1
    46    23    25    1
    47    23    26    1
    48    24    47    1
    49    24    48    1
    50    24    49    1
    51    25    50    1
    52    25    51    1
    53    25    52    1
    54    26    53    1
    55    26    54    1
    56    26    55    1
@<TRIPOS>SUBSTRUCTURE
     1 ZINC000053543817        1 TEMP              0 ****  ****    0 ROOT


##########                                Name:    ZINC001220171460
##########                DOCK_Rotatable_Bonds:                  10
##########                         Heavy_Atoms:                  25
##########                    Molecular_Weight:             383.773
##########                DOCK_Rotatable_Bonds:                  10
##########                       Formal_Charge:           0.0199996
##########                     HBond_Acceptors:                  10
##########                        HBond_Donors:                   3
##########                         Heavy_Atoms:                  25
##########                          Grid_Score:          -29.405058
##########                     Grid_vdw_energy:          -28.652918
##########                      Grid_es_energy:           -0.752140
##########           Internal_energy_repulsive:            8.570682

@<TRIPOS>MOLECULE
ZINC001220171460
 43 44 1 0 0
SMALL
USER_CHARGES


@<TRIPOS>ATOM
      1 C1         -3.8502    3.5691   53.1784 C.3     1  ZINC001220171460    0.0200
      2 O2         -4.9905    3.5712   52.3172 O.3     1  ZINC001220171460   -0.3100
      3 C3         -5.7833    2.4661   52.3396 C.ar    1  ZINC001220171460    0.1000
      4 C4         -6.3952    2.0754   53.5188 C.ar    1  ZINC001220171460   -0.1500
      5 C5         -7.2017    0.9510   53.5410 C.ar    1  ZINC001220171460   -0.0600
      6 Cl6        -7.9683    0.4637   55.0204 Cl      1  ZINC001220171460   -0.0400
      7 C7         -7.3987    0.2138   52.3849 C.ar    1  ZINC001220171460    0.1000
      8 F8         -8.1871   -0.8830   52.4106 F       1  ZINC001220171460   -0.1200
      9 C9         -6.7896    0.5995   51.2034 C.ar    1  ZINC001220171460   -0.1200
     10 C10        -5.9853    1.7288   51.1751 C.ar    1  ZINC001220171460    0.1800
     11 N11        -5.3673    2.1212   49.9793 N.am    1  ZINC001220171460   -0.6700
     12 C12        -4.1225    1.6922   49.6917 C.2     1  ZINC001220171460    0.7100
     13 O13        -3.5353    0.9648   50.4692 O.2     1  ZINC001220171460   -0.5700
     14 N14        -3.5285    2.0695   48.5422 N.am    1  ZINC001220171460   -0.7400
     15 C15        -2.1746    1.6046   48.2303 C.3     1  ZINC001220171460    0.1400
     16 C16        -1.5470    2.5273   47.1837 C.3     1  ZINC001220171460   -0.1400
     17 C17        -0.2762    1.8800   46.6296 C.3     1  ZINC001220171460    0.0500
     18 H18        -0.1256    0.9104   47.1043 H       1  ZINC001220171460    0.1000
     19 N19        -0.4119    1.6986   45.1781 N.3     1  ZINC001220171460   -0.6500
     20 C20        -1.4704    0.7292   44.8654 C.3     1  ZINC001220171460    0.0100
     21 C21        -1.2010   -0.2727   43.7409 C.3     1  ZINC001220171460   -0.2000
     22 C22        -1.2034   -0.7402   45.1977 C.3     1  ZINC001220171460   -0.1600
     23 C23         0.9245    2.7824   46.9208 C.3     1  ZINC001220171460    0.4600
     24 F24         1.0806    2.9189   48.3042 F       1  ZINC001220171460   -0.1800
     25 F25         2.0797    2.2121   46.3752 F       1  ZINC001220171460   -0.1800
     26 F26         0.7112    4.0413   46.3490 F       1  ZINC001220171460   -0.1700
     27 H27        -4.1765    3.4637   54.2131 H       1  ZINC001220171460    0.0600
     28 H28        -3.1984    2.7357   52.9164 H       1  ZINC001220171460    0.0600
     29 H29        -3.3058    4.5063   53.0628 H       1  ZINC001220171460    0.1100
     30 H30        -6.2429    2.6483   54.4216 H       1  ZINC001220171460    0.1500
     31 H31        -6.9440    0.0236   50.3029 H       1  ZINC001220171460    0.1800
     32 H32        -5.8358    2.7015   49.3590 H       1  ZINC001220171460    0.4200
     33 H33        -3.9974    2.6488   47.9213 H       1  ZINC001220171460    0.4000
     34 H34        -1.5685    1.6172   49.1361 H       1  ZINC001220171460    0.0800
     35 H35        -2.2207    0.5886   47.8382 H       1  ZINC001220171460    0.0700
     36 H36        -2.2554    2.6904   46.3715 H       1  ZINC001220171460    0.1000
     37 H37        -1.2967    3.4826   47.6449 H       1  ZINC001220171460    0.1000
     38 H38        -0.5817    2.5803   44.7179 H       1  ZINC001220171460    0.3600
     39 H39        -2.4911    1.0939   44.9811 H       1  ZINC001220171460    0.1200
     40 H40        -2.0445   -0.5673   43.1165 H       1  ZINC001220171460    0.1000
     41 H41        -0.2383   -0.2125   43.2332 H       1  ZINC001220171460    0.1000
     42 H42        -0.2422   -0.9875   45.6484 H       1  ZINC001220171460    0.1000
     43 H43        -2.0484   -1.3422   45.5317 H       1  ZINC001220171460    0.1000
@<TRIPOS>BOND
     1     1     2    1
     2     1    27    1
     3     1    28    1
     4     1    29    1
     5     2     3    1
     6     3    10   ar
     7     3     4   ar
     8     4     5   ar
     9     4    30    1
    10     5     6    1
    11     5     7   ar
    12     7     8    1
    13     7     9   ar
    14     9    10   ar
    15     9    31    1
    16    10    11    1
    17    11    12   am
    18    11    32    1
    19    12    13    2
    20    12    14   am
    21    14    15    1
    22    14    33    1
    23    15    16    1
    24    15    34    1
    25    15    35    1
    26    16    17    1
    27    16    36    1
    28    16    37    1
    29    17    18    1
    30    17    19    1
    31    17    23    1
    32    19    20    1
    33    19    38    1
    34    20    22    1
    35    20    21    1
    36    20    39    1
    37    21    22    1
    38    21    40    1
    39    21    41    1
    40    22    42    1
    41    22    43    1
    42    23    24    1
    43    23    25    1
    44    23    26    1
@<TRIPOS>SUBSTRUCTURE
     1 ZINC001220171460        1 TEMP              0 ****  ****    0 ROOT


##########                                Name:    ZINC000442864105
##########                DOCK_Rotatable_Bonds:                   7
##########                         Heavy_Atoms:                  30
##########                    Molecular_Weight:              414.39
##########                DOCK_Rotatable_Bonds:                   7
##########                       Formal_Charge:           0.0200001
##########                     HBond_Acceptors:                  10
##########                        HBond_Donors:                   2
##########                         Heavy_Atoms:                  30
##########                          Grid_Score:          -29.393019
##########                     Grid_vdw_energy:          -26.218275
##########                      Grid_es_energy:           -3.174744
##########           Internal_energy_repulsive:           17.996193

@<TRIPOS>MOLECULE
ZINC000442864105
 47 50 1 0 0
SMALL
USER_CHARGES


@<TRIPOS>ATOM
      1 C1         -7.9547   -0.0377   67.7286 C.3     1  ZINC000442864105    0.0800
      2 N2         -9.0540    0.5876   66.9891 N.pl3   1  ZINC000442864105   -0.4900
      3 C3        -10.0855    1.2888   67.5559 C.2     1  ZINC000442864105    0.0300
      4 C4        -10.9195    1.7274   66.6007 C.2     1  ZINC000442864105   -0.1900
      5 C5        -10.3795    1.2706   65.3169 C.ar    1  ZINC000442864105   -0.1600
      6 C6        -10.7899    1.4087   63.9895 C.ar    1  ZINC000442864105   -0.0200
      7 C7        -10.0490    0.8510   62.9870 C.ar    1  ZINC000442864105   -0.2100
      8 C8         -8.8839    0.1435   63.2792 C.ar    1  ZINC000442864105    0.2400
      9 N9         -8.1367   -0.4214   62.2415 N.pl3   1  ZINC000442864105   -0.7400
     10 C10        -8.8079   -1.1874   61.1885 C.3     1  ZINC000442864105    0.1100
     11 C11        -8.3868   -0.6631   59.8398 C.2     1  ZINC000442864105    0.5100
     12 O12        -7.2255   -0.7343   59.4969 O.2     1  ZINC000442864105   -0.5100
     13 N13        -9.3006   -0.1150   59.0145 N.am    1  ZINC000442864105   -0.6600
     14 C14        -8.9095    0.3720   57.7619 C.ar    1  ZINC000442864105    0.1600
     15 C15        -8.2467    1.5866   57.6637 C.ar    1  ZINC000442864105   -0.0700
     16 C16        -7.8616    2.0655   56.4258 C.ar    1  ZINC000442864105   -0.1600
     17 C17        -7.1415    3.3851   56.3216 C.3     1  ZINC000442864105    0.5100
     18 F18        -6.2865    3.3638   55.2145 F       1  ZINC000442864105   -0.1700
     19 F19        -8.0758    4.4153   56.1695 F       1  ZINC000442864105   -0.1700
     20 F20        -6.3939    3.6015   57.4841 F       1  ZINC000442864105   -0.1700
     21 C21        -8.1346    1.3369   55.2826 C.ar    1  ZINC000442864105   -0.0600
     22 C22        -8.7951    0.1260   55.3710 C.ar    1  ZINC000442864105   -0.1100
     23 C23        -9.1801   -0.3650   56.6093 C.ar    1  ZINC000442864105    0.1500
     24 N24        -9.8504   -1.5935   56.7014 N.pl3   1  ZINC000442864105   -0.3300
     25 C25       -10.1846   -2.4095   55.6831 C.2     1  ZINC000442864105    0.2800
     26 N26       -10.7966   -3.4525   56.1835 N.2     1  ZINC000442864105   -0.5300
     27 C27       -10.8717   -3.3398   57.5091 C.2     1  ZINC000442864105    0.2300
     28 N28       -10.3014   -2.2211   57.8741 N.2     1  ZINC000442864105   -0.3400
     29 C29        -8.4609   -0.0033   64.5890 C.ar    1  ZINC000442864105   -0.2100
     30 C30        -9.2016    0.5633   65.6202 C.ar    1  ZINC000442864105    0.1500
     31 H31        -7.1381    0.6760   67.8379 H       1  ZINC000442864105    0.0700
     32 H32        -8.3063   -0.3412   68.7146 H       1  ZINC000442864105    0.0800
     33 H33        -7.6016   -0.9130   67.1833 H       1  ZINC000442864105    0.0800
     34 H34       -10.2090    1.4628   68.6146 H       1  ZINC000442864105    0.1700
     35 H35       -11.8187    2.3069   66.7497 H       1  ZINC000442864105    0.1400
     36 H36       -11.6918    1.9551   63.7560 H       1  ZINC000442864105    0.1200
     37 H37       -10.3681    0.9583   61.9609 H       1  ZINC000442864105    0.1200
     38 H38        -7.1738   -0.3060   62.2186 H       1  ZINC000442864105    0.4100
     39 H39        -8.5320   -2.2386   61.2719 H       1  ZINC000442864105    0.1000
     40 H40        -9.8876   -1.0853   61.2969 H       1  ZINC000442864105    0.1000
     41 H41       -10.2293   -0.0580   59.2887 H       1  ZINC000442864105    0.4300
     42 H42        -8.0319    2.1581   58.5545 H       1  ZINC000442864105    0.1700
     43 H43        -7.8312    1.7155   54.3177 H       1  ZINC000442864105    0.1500
     44 H44        -9.0070   -0.4401   54.4760 H       1  ZINC000442864105    0.1500
     45 H45        -9.9835   -2.2335   54.6367 H       1  ZINC000442864105    0.2300
     46 H46       -11.3263   -4.0584   58.1749 H       1  ZINC000442864105    0.2300
     47 H47        -7.5573   -0.5525   64.8087 H       1  ZINC000442864105    0.1200
@<TRIPOS>BOND
     1     1     2    1
     2     1    31    1
     3     1    32    1
     4     1    33    1
     5     2    30    1
     6     2     3    1
     7     3     4    2
     8     3    34    1
     9     4     5    1
    10     4    35    1
    11     5    30   ar
    12     5     6   ar
    13     6     7   ar
    14     6    36    1
    15     7     8   ar
    16     7    37    1
    17     8     9    1
    18     8    29   ar
    19     9    10    1
    20     9    38    1
    21    10    11    1
    22    10    39    1
    23    10    40    1
    24    11    12    2
    25    11    13   am
    26    13    14    1
    27    13    41    1
    28    14    23   ar
    29    14    15   ar
    30    15    16   ar
    31    15    42    1
    32    16    17    1
    33    16    21   ar
    34    17    18    1
    35    17    19    1
    36    17    20    1
    37    21    22   ar
    38    21    43    1
    39    22    23   ar
    40    22    44    1
    41    23    24    1
    42    24    28    1
    43    24    25    1
    44    25    26    2
    45    25    45    1
    46    26    27    1
    47    27    28    2
    48    27    46    1
    49    29    30   ar
    50    29    47    1
@<TRIPOS>SUBSTRUCTURE
     1 ZINC000442864105        1 TEMP              0 ****  ****    0 ROOT


##########                                Name:    ZINC000768148687
##########                DOCK_Rotatable_Bonds:                   8
##########                         Heavy_Atoms:                  25
##########                    Molecular_Weight:             371.307
##########                DOCK_Rotatable_Bonds:                   8
##########                       Formal_Charge:         2.98023e-08
##########                     HBond_Acceptors:                  11
##########                        HBond_Donors:                   0
##########                         Heavy_Atoms:                  25
##########                          Grid_Score:          -29.376434
##########                     Grid_vdw_energy:          -28.758413
##########                      Grid_es_energy:           -0.618022
##########           Internal_energy_repulsive:            6.490146

@<TRIPOS>MOLECULE
ZINC000768148687
 43 44 1 0 0
SMALL
USER_CHARGES


@<TRIPOS>ATOM
      1 C1        -16.2537   -2.4864   58.8378 C.3     1  ZINC000768148687   -0.1800
      2 C2        -15.3869   -3.7228   59.0846 C.3     1  ZINC000768148687    0.1100
      3 N3        -13.9846   -3.3986   58.8112 N.pl3   1  ZINC000768148687   -0.3100
      4 N4        -13.0206   -3.0662   59.7695 N.2     1  ZINC000768148687   -0.2000
      5 C5        -11.8859   -2.8404   59.1673 C.2     1  ZINC000768148687    0.0200
      6 C6        -10.5911   -2.4532   59.8340 C.3     1  ZINC000768148687    0.5500
      7 F7         -9.5705   -3.3069   59.4017 F       1  ZINC000768148687   -0.1600
      8 F8        -10.2694   -1.1340   59.4970 F       1  ZINC000768148687   -0.1600
      9 F9        -10.7312   -2.5591   61.2218 F       1  ZINC000768148687   -0.1500
     10 C10       -12.0837   -3.0225   57.7797 C.2     1  ZINC000768148687   -0.1800
     11 C11       -11.0681   -2.8697   56.7240 C.2     1  ZINC000768148687    0.5300
     12 O12       -10.4305   -3.8343   56.3499 O.2     1  ZINC000768148687   -0.4700
     13 O13       -10.8457   -1.6602   56.1728 O.3     1  ZINC000768148687   -0.3400
     14 C14       -10.0310   -1.6229   54.9716 C.3     1  ZINC000768148687    0.0200
     15 C15        -9.8065   -0.1686   54.5526 C.3     1  ZINC000768148687    0.0600
     16 N16        -8.4374   -0.0113   54.0439 N.3     1  ZINC000768148687   -0.5300
     17 C17        -7.9238    1.3378   54.3222 C.3     1  ZINC000768148687    0.0100
     18 C18        -6.4776    1.4390   53.8299 C.3     1  ZINC000768148687    0.0600
     19 O19        -6.4300    1.1183   52.4370 O.3     1  ZINC000768148687   -0.3800
     20 C20        -6.9222   -0.1890   52.1301 C.3     1  ZINC000768148687    0.0600
     21 C21        -8.3728   -0.3067   52.6051 C.3     1  ZINC000768148687    0.0100
     22 C22       -13.4068   -3.3762   57.5999 C.2     1  ZINC000768148687    0.0600
     23 C23       -14.0803   -3.6724   56.2847 C.3     1  ZINC000768148687    0.3400
     24 F24       -13.7243   -2.6960   55.3482 F       1  ZINC000768148687   -0.1700
     25 F25       -13.6735   -4.9295   55.8252 F       1  ZINC000768148687   -0.1800
     26 H26       -17.2970   -2.7277   59.0413 H       1  ZINC000768148687    0.0900
     27 H27       -15.9322   -1.6799   59.4968 H       1  ZINC000768148687    0.0700
     28 H28       -16.1494   -2.1709   57.7998 H       1  ZINC000768148687    0.0700
     29 H29       -15.4910   -4.0384   60.1227 H       1  ZINC000768148687    0.1100
     30 H30       -15.7084   -4.5294   58.4256 H       1  ZINC000768148687    0.1200
     31 H31        -9.0695   -2.0964   55.1699 H       1  ZINC000768148687    0.0800
     32 H32       -10.5408   -2.1574   54.1700 H       1  ZINC000768148687    0.0800
     33 H33       -10.5175    0.0981   53.7706 H       1  ZINC000768148687    0.1100
     34 H34        -9.9515    0.4840   55.4134 H       1  ZINC000768148687    0.0900
     35 H35        -8.5372    2.0748   53.8039 H       1  ZINC000768148687    0.0500
     36 H36        -7.9570    1.5256   55.3954 H       1  ZINC000768148687    0.0900
     37 H37        -6.1115    2.4543   53.9824 H       1  ZINC000768148687    0.1000
     38 H38        -5.8540    0.7392   54.3862 H       1  ZINC000768148687    0.0600
     39 H39        -6.8776   -0.3511   51.0532 H       1  ZINC000768148687    0.1000
     40 H40        -6.3115   -0.9361   52.6370 H       1  ZINC000768148687    0.0600
     41 H41        -8.7338   -1.3193   52.4249 H       1  ZINC000768148687    0.0800
     42 H42        -8.9933    0.4041   52.0594 H       1  ZINC000768148687    0.0700
     43 H43       -15.1617   -3.6678   56.4210 H       1  ZINC000768148687    0.1500
@<TRIPOS>BOND
     1     1     2    1
     2     1    26    1
     3     1    27    1
     4     1    28    1
     5     2     3    1
     6     2    29    1
     7     2    30    1
     8     3    22    1
     9     3     4    1
    10     4     5    2
    11     5     6    1
    12     5    10    1
    13     6     7    1
    14     6     8    1
    15     6     9    1
    16    10    11    1
    17    10    22    2
    18    11    12    2
    19    11    13    1
    20    13    14    1
    21    14    15    1
    22    14    31    1
    23    14    32    1
    24    15    16    1
    25    15    33    1
    26    15    34    1
    27    16    21    1
    28    16    17    1
    29    17    18    1
    30    17    35    1
    31    17    36    1
    32    18    19    1
    33    18    37    1
    34    18    38    1
    35    19    20    1
    36    20    21    1
    37    20    39    1
    38    20    40    1
    39    21    41    1
    40    21    42    1
    41    22    23    1
    42    23    24    1
    43    23    25    1
    44    23    43    1
@<TRIPOS>SUBSTRUCTURE
     1 ZINC000768148687        1 TEMP              0 ****  ****    0 ROOT


##########                                Name:    ZINC000496437542
##########                DOCK_Rotatable_Bonds:                   7
##########                         Heavy_Atoms:                  24
##########                    Molecular_Weight:             338.447
##########                DOCK_Rotatable_Bonds:                   7
##########                       Formal_Charge:           0.0400002
##########                     HBond_Acceptors:                   6
##########                        HBond_Donors:                   1
##########                         Heavy_Atoms:                  24
##########                          Grid_Score:          -29.336313
##########                     Grid_vdw_energy:          -29.935389
##########                      Grid_es_energy:            0.599076
##########           Internal_energy_repulsive:           17.764805

@<TRIPOS>MOLECULE
ZINC000496437542
 54 55 1 0 0
SMALL
USER_CHARGES


@<TRIPOS>ATOM
      1 C1          2.4744    2.0744   51.0290 C.3     1  ZINC000496437542   -0.1800
      2 C2          2.1138    2.0996   49.5423 C.3     1  ZINC000496437542    0.1400
      3 C3          1.9178    3.5478   49.0895 C.3     1  ZINC000496437542   -0.1800
      4 C4          3.2439    1.4606   48.7327 C.3     1  ZINC000496437542   -0.1400
      5 O5          0.8854    1.3554   49.3296 O.3     1  ZINC000496437542   -0.3600
      6 C6         -0.2459    1.8874   49.8294 C.2     1  ZINC000496437542    0.6600
      7 O7         -0.4102    1.9456   51.0320 O.2     1  ZINC000496437542   -0.5600
      8 N8         -1.1962    2.3553   48.9960 N.am    1  ZINC000496437542   -0.6000
      9 C9         -1.0197    2.2955   47.5364 C.3     1  ZINC000496437542    0.0800
     10 C10        -2.2724    1.6590   46.9235 C.3     1  ZINC000496437542    0.0500
     11 O11        -3.4309    2.3513   47.3951 O.3     1  ZINC000496437542   -0.3700
     12 C12        -3.6245    2.2724   48.8094 C.3     1  ZINC000496437542    0.0700
     13 H13        -3.6865    1.2267   49.1107 H       1  ZINC000496437542    0.0700
     14 C14        -4.9208    2.9912   49.1886 C.3     1  ZINC000496437542    0.1300
     15 N15        -5.3793    2.5141   50.4957 N.am    1  ZINC000496437542   -0.7200
     16 C16        -6.1992    1.4473   50.5740 C.2     1  ZINC000496437542    0.5600
     17 O17        -6.5573    0.8798   49.5597 O.2     1  ZINC000496437542   -0.5400
     18 C18        -6.6611    0.9693   51.8863 C.2     1  ZINC000496437542   -0.1900
     19 C19        -6.5764    1.7564   52.9370 C.2     1  ZINC000496437542   -0.0600
     20 C20        -7.0484    1.2745   54.2925 C.3     1  ZINC000496437542   -0.1000
     21 C21        -8.5772    1.2058   54.2802 C.3     1  ZINC000496437542   -0.1100
     22 C22        -9.0528   -0.1229   53.7216 C.3     1  ZINC000496437542   -0.1200
     23 C23        -8.7417   -0.3159   52.2486 C.3     1  ZINC000496437542   -0.1200
     24 C24        -7.2376   -0.4243   52.0206 C.3     1  ZINC000496437542   -0.0800
     25 C25        -2.4435    2.9353   49.5187 C.3     1  ZINC000496437542    0.1000
     26 H26         1.6693    2.5296   51.6059 H       1  ZINC000496437542    0.0900
     27 H27         2.6141    1.0427   51.3516 H       1  ZINC000496437542    0.0600
     28 H28         3.3966    2.6330   51.1887 H       1  ZINC000496437542    0.0700
     29 H29         2.8400    4.1064   49.2492 H       1  ZINC000496437542    0.0700
     30 H30         1.6611    3.5657   48.0303 H       1  ZINC000496437542    0.0600
     31 H31         1.1127    4.0030   49.6664 H       1  ZINC000496437542    0.0900
     32 H32         3.3836    0.4288   49.0552 H       1  ZINC000496437542    0.0700
     33 H33         2.9871    1.4785   47.6735 H       1  ZINC000496437542    0.0700
     34 H34         4.1662    2.0193   48.8924 H       1  ZINC000496437542    0.0800
     35 H35        -0.8888    3.3028   47.1409 H       1  ZINC000496437542    0.0800
     36 H36        -0.1456    1.6901   47.2966 H       1  ZINC000496437542    0.1000
     37 H37        -2.2228    1.7306   45.8369 H       1  ZINC000496437542    0.1100
     38 H38        -2.3295    0.6111   47.2179 H       1  ZINC000496437542    0.0600
     39 H39        -4.7402    4.0651   49.2367 H       1  ZINC000496437542    0.0900
     40 H40        -5.6838    2.7844   48.4382 H       1  ZINC000496437542    0.0800
     41 H41        -5.0928    2.9659   51.3047 H       1  ZINC000496437542    0.4000
     42 H42        -6.1681    2.7508   52.8322 H       1  ZINC000496437542    0.1300
     43 H43        -6.6391    0.2841   54.4916 H       1  ZINC000496437542    0.0800
     44 H44        -6.7195    1.9711   55.0636 H       1  ZINC000496437542    0.0800
     45 H45        -8.9495    1.3208   55.2981 H       1  ZINC000496437542    0.0700
     46 H46        -8.9676    2.0148   53.6627 H       1  ZINC000496437542    0.0700
     47 H47        -8.5792   -0.9267   54.2853 H       1  ZINC000496437542    0.0600
     48 H48       -10.1315   -0.1929   53.8613 H       1  ZINC000496437542    0.0600
     49 H49        -9.2250   -1.2272   51.8963 H       1  ZINC000496437542    0.0700
     50 H50        -9.1276    0.5343   51.6862 H       1  ZINC000496437542    0.0600
     51 H51        -7.0455   -0.9886   51.1080 H       1  ZINC000496437542    0.0700
     52 H52        -6.7739   -0.9270   52.8694 H       1  ZINC000496437542    0.0800
     53 H53        -2.5121    2.7559   50.5917 H       1  ZINC000496437542    0.1100
     54 H54        -2.4531    4.0076   49.3239 H       1  ZINC000496437542    0.0900
@<TRIPOS>BOND
     1     1     2    1
     2     1    26    1
     3     1    27    1
     4     1    28    1
     5     2     3    1
     6     2     4    1
     7     2     5    1
     8     3    29    1
     9     3    30    1
    10     3    31    1
    11     4    32    1
    12     4    33    1
    13     4    34    1
    14     5     6    1
    15     6     7    2
    16     6     8   am
    17     8    25    1
    18     8     9    1
    19     9    10    1
    20     9    35    1
    21     9    36    1
    22    10    11    1
    23    10    37    1
    24    10    38    1
    25    11    12    1
    26    12    13    1
    27    12    14    1
    28    12    25    1
    29    14    15    1
    30    14    39    1
    31    14    40    1
    32    15    16   am
    33    15    41    1
    34    16    17    2
    35    16    18    1
    36    18    24    1
    37    18    19    2
    38    19    20    1
    39    19    42    1
    40    20    21    1
    41    20    43    1
    42    20    44    1
    43    21    22    1
    44    21    45    1
    45    21    46    1
    46    22    23    1
    47    22    47    1
    48    22    48    1
    49    23    24    1
    50    23    49    1
    51    23    50    1
    52    24    51    1
    53    24    52    1
    54    25    53    1
    55    25    54    1
@<TRIPOS>SUBSTRUCTURE
     1 ZINC000496437542        1 TEMP              0 ****  ****    0 ROOT


##########                                Name:    ZINC000179743483
##########                DOCK_Rotatable_Bonds:                   5
##########                         Heavy_Atoms:                  23
##########                    Molecular_Weight:             393.347
##########                DOCK_Rotatable_Bonds:                   5
##########                       Formal_Charge:          -0.0199999
##########                     HBond_Acceptors:                   4
##########                        HBond_Donors:                   0
##########                         Heavy_Atoms:                  23
##########                          Grid_Score:          -29.308195
##########                     Grid_vdw_energy:          -28.777948
##########                      Grid_es_energy:           -0.530247
##########           Internal_energy_repulsive:           22.059896

@<TRIPOS>MOLECULE
ZINC000179743483
 44 46 1 0 0
SMALL
USER_CHARGES


@<TRIPOS>ATOM
      1 C1         -7.7246    2.6068   52.1602 C.3     1  ZINC000179743483   -0.1400
      2 C2         -6.6220    1.5502   52.2533 C.3     1  ZINC000179743483   -0.1000
      3 H3         -5.8635    1.8782   52.9641 H       1  ZINC000179743483    0.1000
      4 C4         -7.2241    0.2251   52.7253 C.3     1  ZINC000179743483   -0.0700
      5 C5         -7.7792    0.3927   54.1162 C.ar    1  ZINC000179743483   -0.0600
      6 C6         -9.0537   -0.0553   54.4101 C.ar    1  ZINC000179743483   -0.1100
      7 C7         -9.5631    0.0979   55.6859 C.ar    1  ZINC000179743483   -0.0900
      8 C8         -8.7976    0.6994   56.6685 C.ar    1  ZINC000179743483   -0.0900
      9 Br9        -9.4938    0.9086   58.4142 Br      1  ZINC000179743483   -0.0500
     10 C10        -7.5225    1.1474   56.3739 C.ar    1  ZINC000179743483   -0.0900
     11 C11        -7.0119    0.9891   55.0993 C.ar    1  ZINC000179743483   -0.1100
     12 C12        -5.9916    1.3610   50.8977 C.2     1  ZINC000179743483    0.5200
     13 O13        -6.2596    0.3806   50.2358 O.2     1  ZINC000179743483   -0.5300
     14 N14        -5.1302    2.2812   50.4206 N.am    1  ZINC000179743483   -0.6100
     15 C15        -4.7958    3.4740   51.2106 C.3     1  ZINC000179743483    0.1000
     16 C16        -3.2723    3.5679   51.3411 C.3     1  ZINC000179743483   -0.1400
     17 C17        -2.6422    3.5406   49.9467 C.3     1  ZINC000179743483   -0.1100
     18 C18        -2.9873    2.2198   49.2549 C.3     1  ZINC000179743483   -0.0200
     19 H19        -2.6219    1.3876   49.8567 H       1  ZINC000179743483    0.0900
     20 C20        -2.3391    2.1798   47.8950 C.2     1  ZINC000179743483    0.0500
     21 N21        -2.9672    1.9997   46.7825 N.2     1  ZINC000179743483   -0.4700
     22 C22        -2.2460    1.9929   45.6795 C.2     1  ZINC000179743483    0.0400
     23 C23        -0.9366    2.1776   45.8726 C.2     1  ZINC000179743483   -0.2600
     24 S24        -0.6657    2.3739   47.6025 S.3     1  ZINC000179743483    0.1300
     25 C25        -4.5029    2.1076   49.1034 C.3     1  ZINC000179743483    0.1200
     26 H26        -8.4430    2.3157   51.3938 H       1  ZINC000179743483    0.0700
     27 H27        -8.2318    2.6884   53.1215 H       1  ZINC000179743483    0.0700
     28 H28        -7.2845    3.5692   51.8988 H       1  ZINC000179743483    0.0600
     29 H29        -8.0246   -0.0720   52.0479 H       1  ZINC000179743483    0.0900
     30 H30        -6.4507   -0.5430   52.7328 H       1  ZINC000179743483    0.0800
     31 H31        -9.6514   -0.5245   53.6428 H       1  ZINC000179743483    0.1300
     32 H32       -10.5589   -0.2517   55.9153 H       1  ZINC000179743483    0.1300
     33 H33        -6.9245    1.6171   57.1408 H       1  ZINC000179743483    0.1300
     34 H34        -6.0163    1.3389   54.8691 H       1  ZINC000179743483    0.1300
     35 H35        -5.1749    4.3635   50.7075 H       1  ZINC000179743483    0.0700
     36 H36        -5.2431    3.3933   52.2014 H       1  ZINC000179743483    0.0900
     37 H37        -3.0067    4.4987   51.8421 H       1  ZINC000179743483    0.0800
     38 H38        -2.9043    2.7230   51.9232 H       1  ZINC000179743483    0.0700
     39 H39        -3.0296    4.3714   49.3569 H       1  ZINC000179743483    0.0800
     40 H40        -1.5597    3.6320   50.0354 H       1  ZINC000179743483    0.0700
     41 H41        -2.6778    1.8494   44.7001 H       1  ZINC000179743483    0.1800
     42 H42        -0.1788    2.2054   45.1035 H       1  ZINC000179743483    0.1800
     43 H43        -4.7584    1.1269   48.7020 H       1  ZINC000179743483    0.0900
     44 H44        -4.8614    2.8854   48.4292 H       1  ZINC000179743483    0.0800
@<TRIPOS>BOND
     1     1     2    1
     2     1    26    1
     3     1    27    1
     4     1    28    1
     5     2     3    1
     6     2     4    1
     7     2    12    1
     8     4     5    1
     9     4    29    1
    10     4    30    1
    11     5    11   ar
    12     5     6   ar
    13     6     7   ar
    14     6    31    1
    15     7     8   ar
    16     7    32    1
    17     8     9    1
    18     8    10   ar
    19    10    11   ar
    20    10    33    1
    21    11    34    1
    22    12    13    2
    23    12    14   am
    24    14    25    1
    25    14    15    1
    26    15    16    1
    27    15    35    1
    28    15    36    1
    29    16    17    1
    30    16    37    1
    31    16    38    1
    32    17    18    1
    33    17    39    1
    34    17    40    1
    35    18    19    1
    36    18    20    1
    37    18    25    1
    38    20    24    1
    39    20    21    2
    40    21    22    1
    41    22    23    2
    42    22    41    1
    43    23    24    1
    44    23    42    1
    45    25    43    1
    46    25    44    1
@<TRIPOS>SUBSTRUCTURE
     1 ZINC000179743483        1 TEMP              0 ****  ****    0 ROOT


##########                                Name:    ZINC000937331732
##########                DOCK_Rotatable_Bonds:                   6
##########                         Heavy_Atoms:                  24
##########                    Molecular_Weight:              333.35
##########                DOCK_Rotatable_Bonds:                   6
##########                       Formal_Charge:          -0.0299999
##########                     HBond_Acceptors:                  10
##########                        HBond_Donors:                   1
##########                         Heavy_Atoms:                  24
##########                          Grid_Score:          -29.291349
##########                     Grid_vdw_energy:          -26.745647
##########                      Grid_es_energy:           -2.545702
##########           Internal_energy_repulsive:           17.925644

@<TRIPOS>MOLECULE
ZINC000937331732
 43 45 1 0 0
SMALL
USER_CHARGES


@<TRIPOS>ATOM
      1 C1         -5.2366    2.6483   52.4919 C.3     1  ZINC000937331732    0.0600
      2 N2         -5.9663    2.0506   51.3708 N.am    1  ZINC000937331732   -0.6100
      3 C3         -5.5172    2.2141   50.1107 C.2     1  ZINC000937331732    0.5000
      4 O4         -6.1204    1.7181   49.1828 O.2     1  ZINC000937331732   -0.5200
      5 C5         -4.2655    3.0133   49.8546 C.3     1  ZINC000937331732    0.1500
      6 N6         -3.0978    2.1326   49.9402 N.am    1  ZINC000937331732   -0.4400
      7 N7         -3.0433    0.7855   49.5566 N.2     1  ZINC000937331732   -0.2800
      8 C8         -1.8459    0.3504   49.7833 C.2     1  ZINC000937331732    0.2600
      9 N9         -1.0948    1.3727   50.3099 N.am    1  ZINC000937331732   -0.5600
     10 C10         0.3139    1.2876   50.7029 C.3     1  ZINC000937331732    0.1000
     11 C11        -1.8737    2.4695   50.3976 C.2     1  ZINC000937331732    0.6500
     12 O12        -1.5369    3.5615   50.8195 O.2     1  ZINC000937331732   -0.5500
     13 C13        -7.1841    1.2752   51.6197 C.3     1  ZINC000937331732    0.1300
     14 H14        -7.7975    1.2239   50.7201 H       1  ZINC000937331732    0.1200
     15 C15        -6.8342   -0.1487   52.1274 C.3     1  ZINC000937331732   -0.1500
     16 C16        -8.1036   -0.5103   52.9383 C.3     1  ZINC000937331732    0.1000
     17 N17        -8.5120    0.7513   53.5825 N.am    1  ZINC000937331732   -0.6000
     18 C18        -9.2482    0.8570   54.7064 C.2     1  ZINC000937331732    0.6200
     19 O19        -9.5277    1.9545   55.1493 O.2     1  ZINC000937331732   -0.5400
     20 C20        -9.7146   -0.3579   55.3990 C.2     1  ZINC000937331732    0.1400
     21 N21       -10.0846   -1.4809   54.8209 N.2     1  ZINC000937331732   -0.4400
     22 C22       -10.4417   -2.3559   55.7582 C.2     1  ZINC000937331732   -0.0300
     23 C23       -10.2929   -1.7675   56.9704 C.2     1  ZINC000937331732   -0.0200
     24 N24        -9.8315   -0.5134   56.7517 N.pl3   1  ZINC000937331732   -0.5200
     25 C25        -7.9849    1.8780   52.7931 C.3     1  ZINC000937331732    0.1000
     26 H26        -5.6184    3.6516   52.6803 H       1  ZINC000937331732    0.0700
     27 H27        -5.3726    2.0346   53.3824 H       1  ZINC000937331732    0.0800
     28 H28        -4.1759    2.7032   52.2469 H       1  ZINC000937331732    0.0800
     29 H29        -4.3144    3.4562   48.8599 H       1  ZINC000937331732    0.1300
     30 H30        -4.1800    3.8035   50.6004 H       1  ZINC000937331732    0.1300
     31 H31        -1.4947   -0.6526   49.5903 H       1  ZINC000937331732    0.2300
     32 H32         0.6837    0.2799   50.5138 H       1  ZINC000937331732    0.1000
     33 H33         0.8968    2.0033   50.1229 H       1  ZINC000937331732    0.0800
     34 H34         0.4096    1.5164   51.7642 H       1  ZINC000937331732    0.0800
     35 H35        -6.6937   -0.8370   51.2939 H       1  ZINC000937331732    0.0900
     36 H36        -5.9531   -0.1291   52.7688 H       1  ZINC000937331732    0.0800
     37 H37        -8.8894   -0.8685   52.2733 H       1  ZINC000937331732    0.0800
     38 H38        -7.8707   -1.2628   53.6917 H       1  ZINC000937331732    0.1100
     39 H39       -10.7905   -3.3629   55.5829 H       1  ZINC000937331732    0.1800
     40 H40       -10.5002   -2.2161   57.9306 H       1  ZINC000937331732    0.1900
     41 H41        -9.6277    0.1515   57.4278 H       1  ZINC000937331732    0.4300
     42 H42        -7.3281    2.4891   53.4121 H       1  ZINC000937331732    0.0800
     43 H43        -8.8089    2.4826   52.4142 H       1  ZINC000937331732    0.0800
@<TRIPOS>BOND
     1     1     2    1
     2     1    26    1
     3     1    27    1
     4     1    28    1
     5     2     3   am
     6     2    13    1
     7     3     4    2
     8     3     5    1
     9     5     6    1
    10     5    29    1
    11     5    30    1
    12     6    11   am
    13     6     7    1
    14     7     8    2
    15     8     9    1
    16     8    31    1
    17     9    10    1
    18     9    11   am
    19    10    32    1
    20    10    33    1
    21    10    34    1
    22    11    12    2
    23    13    14    1
    24    13    25    1
    25    13    15    1
    26    15    16    1
    27    15    35    1
    28    15    36    1
    29    16    17    1
    30    16    37    1
    31    16    38    1
    32    17    18   am
    33    17    25    1
    34    18    19    2
    35    18    20    1
    36    20    24    1
    37    20    21    2
    38    21    22    1
    39    22    23    2
    40    22    39    1
    41    23    24    1
    42    23    40    1
    43    24    41    1
    44    25    42    1
    45    25    43    1
@<TRIPOS>SUBSTRUCTURE
     1 ZINC000937331732        1 TEMP              0 ****  ****    0 ROOT


##########                                Name:    ZINC000433533595
##########                DOCK_Rotatable_Bonds:                  10
##########                         Heavy_Atoms:                  24
##########                    Molecular_Weight:             397.312
##########                DOCK_Rotatable_Bonds:                  10
##########                       Formal_Charge:          0.00999916
##########                     HBond_Acceptors:                   5
##########                        HBond_Donors:                   1
##########                         Heavy_Atoms:                  24
##########                          Grid_Score:          -29.286554
##########                     Grid_vdw_energy:          -27.912289
##########                      Grid_es_energy:           -1.374265
##########           Internal_energy_repulsive:           15.838601

@<TRIPOS>MOLECULE
ZINC000433533595
 49 50 1 0 0
SMALL
USER_CHARGES


@<TRIPOS>ATOM
      1 C1         -6.1144    1.0777   50.0941 C.3     1  ZINC000433533595   -0.1500
      2 C2         -4.7179    1.6813   49.9324 C.3     1  ZINC000433533595   -0.1200
      3 C3         -4.8300    3.2029   49.8177 C.3     1  ZINC000433533595   -0.1300
      4 C4         -3.4306    3.8099   49.6990 C.3     1  ZINC000433533595    0.1000
      5 N5         -2.6738    3.5352   50.9230 N.am    1  ZINC000433533595   -0.5500
      6 C6         -1.4308    3.0200   50.8454 C.2     1  ZINC000433533595    0.5100
      7 O7         -0.8039    2.7924   51.8592 O.2     1  ZINC000433533595   -0.5100
      8 C8         -0.8250    2.7290   49.5117 C.2     1  ZINC000433533595    0.5000
      9 O9         -0.5945    3.6363   48.7389 O.2     1  ZINC000433533595   -0.4900
     10 N10        -0.5344    1.4592   49.1662 N.am    1  ZINC000433533595   -0.6300
     11 C11         0.0329    1.1867   47.9171 C.ar    1  ZINC000433533595    0.1200
     12 C12        -0.7751    0.8149   46.8521 C.ar    1  ZINC000433533595   -0.0600
     13 C13        -0.2115    0.5461   45.6182 C.ar    1  ZINC000433533595   -0.1100
     14 Br14       -1.3142    0.0401   44.1677 Br      1  ZINC000433533595   -0.0400
     15 C15         1.1569    0.6470   45.4426 C.ar    1  ZINC000433533595   -0.0600
     16 C16         1.9682    1.0170   46.4994 C.ar    1  ZINC000433533595   -0.1900
     17 C17         1.4112    1.2935   47.7370 C.ar    1  ZINC000433533595    0.1300
     18 O18         2.2081    1.6575   48.7770 O.3     1  ZINC000433533595   -0.3100
     19 C19         2.9570    0.6207   49.4143 C.3     1  ZINC000433533595    0.0800
     20 C20         4.4525    0.8770   49.2174 C.3     1  ZINC000433533595   -0.1500
     21 C21         2.6349    0.6045   50.9099 C.3     1  ZINC000433533595   -0.1800
     22 C22        -3.2681    3.8206   52.2313 C.3     1  ZINC000433533595    0.0600
     23 C23        -2.5729    4.8616   53.1110 C.3     1  ZINC000433533595   -0.1900
     24 C24        -3.9028    5.1980   52.4335 C.3     1  ZINC000433533595   -0.1800
     25 H25        -6.7232    1.3328   49.2267 H       1  ZINC000433533595    0.0500
     26 H26        -6.0344   -0.0063   50.1758 H       1  ZINC000433533595    0.0500
     27 H27        -6.5804    1.4766   50.9952 H       1  ZINC000433533595    0.0500
     28 H28        -4.1090    1.4262   50.7997 H       1  ZINC000433533595    0.0700
     29 H29        -4.2517    1.2824   49.0313 H       1  ZINC000433533595    0.0600
     30 H30        -5.4132    3.4586   48.9331 H       1  ZINC000433533595    0.0600
     31 H31        -5.3236    3.5987   50.7052 H       1  ZINC000433533595    0.0700
     32 H32        -2.9145    3.3692   48.8461 H       1  ZINC000433533595    0.1100
     33 H33        -3.5128    4.8874   49.5568 H       1  ZINC000433533595    0.0800
     34 H34        -0.7188    0.7342   49.7836 H       1  ZINC000433533595    0.4300
     35 H35        -1.8437    0.7352   46.9869 H       1  ZINC000433533595    0.1600
     36 H36         1.5929    0.4358   44.4772 H       1  ZINC000433533595    0.1400
     37 H37         3.0362    1.0947   46.3586 H       1  ZINC000433533595    0.1500
     38 H38         2.6922   -0.3412   48.9753 H       1  ZINC000433533595    0.0800
     39 H39         4.7172    1.8388   49.6564 H       1  ZINC000433533595    0.0700
     40 H40         5.0237    0.0861   49.7035 H       1  ZINC000433533595    0.0800
     41 H41         4.6819    0.8884   48.1518 H       1  ZINC000433533595    0.0700
     42 H42         2.8997    1.5665   51.3490 H       1  ZINC000433533595    0.0700
     43 H43         1.5695    0.4221   51.0502 H       1  ZINC000433533595    0.0600
     44 H44         3.2062   -0.1862   51.3961 H       1  ZINC000433533595    0.0800
     45 H45        -3.7370    2.9723   52.7298 H       1  ZINC000433533595    0.1400
     46 H46        -2.5841    4.6981   54.1886 H       1  ZINC000433533595    0.0900
     47 H47        -1.6734    5.3341   52.7163 H       1  ZINC000433533595    0.1400
     48 H48        -3.8782    5.8917   51.5931 H       1  ZINC000433533595    0.1000
     49 H49        -4.7890    5.2559   53.0654 H       1  ZINC000433533595    0.1000
@<TRIPOS>BOND
     1     1     2    1
     2     1    25    1
     3     1    26    1
     4     1    27    1
     5     2     3    1
     6     2    28    1
     7     2    29    1
     8     3     4    1
     9     3    30    1
    10     3    31    1
    11     4     5    1
    12     4    32    1
    13     4    33    1
    14     5     6   am
    15     5    22    1
    16     6     7    2
    17     6     8    1
    18     8     9    2
    19     8    10   am
    20    10    11    1
    21    10    34    1
    22    11    17   ar
    23    11    12   ar
    24    12    13   ar
    25    12    35    1
    26    13    14    1
    27    13    15   ar
    28    15    16   ar
    29    15    36    1
    30    16    17   ar
    31    16    37    1
    32    17    18    1
    33    18    19    1
    34    19    20    1
    35    19    21    1
    36    19    38    1
    37    20    39    1
    38    20    40    1
    39    20    41    1
    40    21    42    1
    41    21    43    1
    42    21    44    1
    43    22    24    1
    44    22    23    1
    45    22    45    1
    46    23    24    1
    47    23    46    1
    48    23    47    1
    49    24    48    1
    50    24    49    1
@<TRIPOS>SUBSTRUCTURE
     1 ZINC000433533595        1 TEMP              0 ****  ****    0 ROOT


##########                                Name:    ZINC000546115054
##########                DOCK_Rotatable_Bonds:                  10
##########                         Heavy_Atoms:                  26
##########                    Molecular_Weight:             363.457
##########                DOCK_Rotatable_Bonds:                  10
##########                       Formal_Charge:        -4.39584e-07
##########                     HBond_Acceptors:                   7
##########                        HBond_Donors:                   2
##########                         Heavy_Atoms:                  26
##########                          Grid_Score:          -29.280136
##########                     Grid_vdw_energy:          -29.345373
##########                      Grid_es_energy:            0.065237
##########           Internal_energy_repulsive:           18.041698

@<TRIPOS>MOLECULE
ZINC000546115054
 55 56 1 0 0
SMALL
USER_CHARGES


@<TRIPOS>ATOM
      1 C1        -13.4197   -4.9179   57.2774 C.3     1  ZINC000546115054   -0.1500
      2 C2        -11.9962   -4.3952   57.4813 C.3     1  ZINC000546115054    0.0600
      3 O3        -12.0401   -3.1643   58.2061 O.3     1  ZINC000546115054   -0.3700
      4 C4        -10.8654   -2.9010   58.9760 C.3     1  ZINC000546115054    0.0500
      5 H5        -10.1933   -3.7574   58.9194 H       1  ZINC000546115054    0.0700
      6 C6        -11.2552   -2.6522   60.4354 C.3     1  ZINC000546115054    0.0400
      7 O7        -10.0857   -2.3322   61.1915 O.3     1  ZINC000546115054   -0.3700
      8 C8         -9.4110   -1.1519   60.7513 C.3     1  ZINC000546115054    0.0600
      9 C9         -8.9472   -1.3405   59.3047 C.3     1  ZINC000546115054   -0.1600
     10 C10       -10.1594   -1.6589   58.4239 C.3     1  ZINC000546115054    0.1700
     11 H11       -10.8489   -0.8147   58.4336 H       1  ZINC000546115054    0.1000
     12 N12        -9.7147   -1.9128   57.0513 N.am    1  ZINC000546115054   -0.7300
     13 C13        -9.8056   -0.9401   56.1227 C.2     1  ZINC000546115054    0.7200
     14 O14       -10.2579    0.1475   56.4239 O.2     1  ZINC000546115054   -0.5900
     15 N15        -9.3949   -1.1732   54.8604 N.am    1  ZINC000546115054   -0.7200
     16 C16        -9.4954   -0.1165   53.8506 C.3     1  ZINC000546115054    0.1600
     17 H17        -9.2699    0.8464   54.3088 H       1  ZINC000546115054    0.1200
     18 C18        -8.4973   -0.3913   52.7239 C.3     1  ZINC000546115054   -0.1000
     19 C19        -7.4574    0.6990   52.6970 C.ar    1  ZINC000546115054   -0.0800
     20 C20        -6.7993    1.0553   53.8594 C.ar    1  ZINC000546115054   -0.1100
     21 C21        -5.8454    2.0554   53.8346 C.ar    1  ZINC000546115054   -0.1200
     22 C22        -5.5493    2.6991   52.6477 C.ar    1  ZINC000546115054   -0.1200
     23 C23        -6.2067    2.3422   51.4853 C.ar    1  ZINC000546115054   -0.1200
     24 C24        -7.1575    1.3391   51.5090 C.ar    1  ZINC000546115054   -0.1100
     25 C25       -10.8932   -0.0904   53.2882 C.2     1  ZINC000546115054    0.5000
     26 O26       -11.6359   -1.0327   53.4653 O.2     1  ZINC000546115054   -0.5200
     27 N27       -11.3181    0.9803   52.5883 N.am    1  ZINC000546115054   -0.6200
     28 C28       -12.6776    1.0065   52.0431 C.3     1  ZINC000546115054    0.0800
     29 C29       -10.4204    2.1177   52.3728 C.3     1  ZINC000546115054    0.0700
     30 H30       -13.3863   -5.8567   56.7245 H       1  ZINC000546115054    0.0700
     31 H31       -13.8882   -5.0839   58.2474 H       1  ZINC000546115054    0.0600
     32 H32       -13.9986   -4.1854   56.7149 H       1  ZINC000546115054    0.0600
     33 H33       -11.4173   -5.1277   58.0438 H       1  ZINC000546115054    0.0500
     34 H34       -11.5278   -4.2291   56.5112 H       1  ZINC000546115054    0.0500
     35 H35       -11.9598   -1.8222   60.4870 H       1  ZINC000546115054    0.0600
     36 H36       -11.7193   -3.5491   60.8457 H       1  ZINC000546115054    0.1000
     37 H37       -10.0915   -0.3021   60.8071 H       1  ZINC000546115054    0.0600
     38 H38        -8.5467   -0.9679   61.3893 H       1  ZINC000546115054    0.1000
     39 H39        -8.4714   -0.4252   58.9525 H       1  ZINC000546115054    0.0900
     40 H40        -8.2354   -2.1645   59.2549 H       1  ZINC000546115054    0.0800
     41 H41        -9.3550   -2.7808   56.8108 H       1  ZINC000546115054    0.3900
     42 H42        -9.0330   -2.0405   54.6204 H       1  ZINC000546115054    0.4000
     43 H43        -8.0120   -1.3522   52.8949 H       1  ZINC000546115054    0.0900
     44 H44        -9.0239   -0.4148   51.7699 H       1  ZINC000546115054    0.1100
     45 H45        -7.0307    0.5524   54.7866 H       1  ZINC000546115054    0.1200
     46 H46        -5.3317    2.3343   54.7428 H       1  ZINC000546115054    0.1200
     47 H47        -4.8045    3.4810   52.6286 H       1  ZINC000546115054    0.1200
     48 H48        -5.9756    2.8453   50.5579 H       1  ZINC000546115054    0.1200
     49 H49        -7.6712    1.0602   50.6008 H       1  ZINC000546115054    0.1200
     50 H50       -13.3545    1.4455   52.7760 H       1  ZINC000546115054    0.0600
     51 H51       -12.6920    1.6037   51.1314 H       1  ZINC000546115054    0.0700
     52 H52       -12.9977   -0.0105   51.8163 H       1  ZINC000546115054    0.0800
     53 H53        -9.8579    1.9673   51.4514 H       1  ZINC000546115054    0.0600
     54 H54       -11.0064    3.0335   52.2954 H       1  ZINC000546115054    0.0800
     55 H55        -9.7288    2.1988   53.2114 H       1  ZINC000546115054    0.0700
@<TRIPOS>BOND
     1     1     2    1
     2     1    30    1
     3     1    31    1
     4     1    32    1
     5     2     3    1
     6     2    33    1
     7     2    34    1
     8     3     4    1
     9     4     5    1
    10     4    10    1
    11     4     6    1
    12     6     7    1
    13     6    35    1
    14     6    36    1
    15     7     8    1
    16     8     9    1
    17     8    37    1
    18     8    38    1
    19     9    10    1
    20     9    39    1
    21     9    40    1
    22    10    11    1
    23    10    12    1
    24    12    13   am
    25    12    41    1
    26    13    14    2
    27    13    15   am
    28    15    16    1
    29    15    42    1
    30    16    17    1
    31    16    18    1
    32    16    25    1
    33    18    19    1
    34    18    43    1
    35    18    44    1
    36    19    24   ar
    37    19    20   ar
    38    20    21   ar
    39    20    45    1
    40    21    22   ar
    41    21    46    1
    42    22    23   ar
    43    22    47    1
    44    23    24   ar
    45    23    48    1
    46    24    49    1
    47    25    26    2
    48    25    27   am
    49    27    28    1
    50    27    29    1
    51    28    50    1
    52    28    51    1
    53    28    52    1
    54    29    53    1
    55    29    54    1
    56    29    55    1
@<TRIPOS>SUBSTRUCTURE
     1 ZINC000546115054        1 TEMP              0 ****  ****    0 ROOT


##########                                Name:    ZINC000840464592
##########                DOCK_Rotatable_Bonds:                  10
##########                         Heavy_Atoms:                  26
##########                    Molecular_Weight:             360.497
##########                DOCK_Rotatable_Bonds:                  10
##########                       Formal_Charge:          -0.0399996
##########                     HBond_Acceptors:                   5
##########                        HBond_Donors:                   1
##########                         Heavy_Atoms:                  26
##########                          Grid_Score:          -29.264259
##########                     Grid_vdw_energy:          -29.442749
##########                      Grid_es_energy:            0.178491
##########           Internal_energy_repulsive:           81.526314

@<TRIPOS>MOLECULE
ZINC000840464592
 58 59 1 0 0
SMALL
USER_CHARGES


@<TRIPOS>ATOM
      1 C1         -8.1973   -0.4011   65.7498 C.3     1  ZINC000840464592   -0.1500
      2 C2         -8.3603    1.0610   65.3293 C.3     1  ZINC000840464592   -0.1300
      3 C3         -9.6103    1.2050   64.4590 C.3     1  ZINC000840464592   -0.1200
      4 C4         -9.4144    0.4320   63.1532 C.3     1  ZINC000840464592   -0.1200
      5 C5        -10.4113    0.9360   62.1077 C.3     1  ZINC000840464592   -0.1200
      6 C6        -11.8371    0.6465   62.5814 C.3     1  ZINC000840464592    0.0600
      7 O7        -12.7482    0.8449   61.4986 O.3     1  ZINC000840464592   -0.3600
      8 C8        -14.0572    0.3239   61.7375 C.3     1  ZINC000840464592    0.0800
      9 H9        -13.9798   -0.6178   62.2811 H       1  ZINC000840464592    0.0800
     10 C10       -14.8618    1.3268   62.5668 C.3     1  ZINC000840464592   -0.1800
     11 C11       -14.7522    0.0884   60.4212 C.2     1  ZINC000840464592    0.5200
     12 O12       -15.5763    0.8827   60.0199 O.2     1  ZINC000840464592   -0.5000
     13 N13       -14.4580   -1.0047   59.6900 N.am    1  ZINC000840464592   -0.6000
     14 C14       -15.1342   -1.2288   58.4147 C.3     1  ZINC000840464592    0.0900
     15 C15       -15.9691   -2.5042   58.4412 C.3     1  ZINC000840464592   -0.1600
     16 C16       -15.0669   -3.7211   58.6577 C.3     1  ZINC000840464592    0.0800
     17 N17       -14.9134   -3.9537   60.0980 N.am    1  ZINC000840464592   -0.7200
     18 C18       -14.1806   -3.1142   60.8467 C.2     1  ZINC000840464592    0.5100
     19 O19       -14.0961   -3.2771   62.0456 O.2     1  ZINC000840464592   -0.5200
     20 C20       -13.4564   -1.9595   60.1761 C.3     1  ZINC000840464592    0.1400
     21 H21       -12.8024   -1.4698   60.8975 H       1  ZINC000840464592    0.1300
     22 C22       -12.6251   -2.4861   59.0046 C.3     1  ZINC000840464592   -0.1000
     23 C23       -11.2283   -1.9268   59.0882 C.ar    1  ZINC000840464592   -0.0900
     24 C24       -10.8410   -0.9050   58.2415 C.ar    1  ZINC000840464592   -0.1100
     25 C25        -9.5597   -0.3919   58.3182 C.ar    1  ZINC000840464592   -0.1200
     26 C26        -8.6658   -0.9004   59.2420 C.ar    1  ZINC000840464592   -0.1200
     27 C27        -9.0534   -1.9214   60.0893 C.ar    1  ZINC000840464592   -0.1200
     28 C28       -10.3360   -2.4316   60.0154 C.ar    1  ZINC000840464592   -0.1100
     29 H29        -8.0958   -1.0253   64.8620 H       1  ZINC000840464592    0.0500
     30 H30        -7.3067   -0.5037   66.3698 H       1  ZINC000840464592    0.0500
     31 H31        -9.0732   -0.7157   66.3170 H       1  ZINC000840464592    0.0500
     32 H32        -8.4617    1.6852   66.2171 H       1  ZINC000840464592    0.0600
     33 H33        -7.4843    1.3757   64.7620 H       1  ZINC000840464592    0.0600
     34 H34       -10.4725    0.8048   64.9922 H       1  ZINC000840464592    0.0600
     35 H35        -9.7781    2.2587   64.2357 H       1  ZINC000840464592    0.0600
     36 H36        -8.3983    0.5847   62.7895 H       1  ZINC000840464592    0.0600
     37 H37        -9.5807   -0.6303   63.3314 H       1  ZINC000840464592    0.0600
     38 H38       -10.2844    2.0102   61.9728 H       1  ZINC000840464592    0.0700
     39 H39       -10.2328    0.4272   61.1605 H       1  ZINC000840464592    0.0700
     40 H40       -11.9027   -0.3851   62.9270 H       1  ZINC000840464592    0.0500
     41 H41       -12.0922    1.3207   63.3991 H       1  ZINC000840464592    0.0500
     42 H42       -15.8817    0.9621   62.6886 H       1  ZINC000840464592    0.0800
     43 H43       -14.3980    1.4433   63.5463 H       1  ZINC000840464592    0.0700
     44 H44       -14.8789    2.2896   62.0561 H       1  ZINC000840464592    0.0800
     45 H45       -15.7858   -0.3810   58.2033 H       1  ZINC000840464592    0.1000
     46 H46       -14.3875   -1.3083   57.6247 H       1  ZINC000840464592    0.0800
     47 H47       -16.6951   -2.4439   59.2519 H       1  ZINC000840464592    0.0800
     48 H48       -16.4970   -2.6100   57.4934 H       1  ZINC000840464592    0.1000
     49 H49       -15.5191   -4.5974   58.1932 H       1  ZINC000840464592    0.0900
     50 H50       -14.0897   -3.5343   58.2124 H       1  ZINC000840464592    0.1000
     51 H51       -15.3439   -4.7181   60.5118 H       1  ZINC000840464592    0.4000
     52 H52       -12.5839   -3.5745   59.0484 H       1  ZINC000840464592    0.0900
     53 H53       -13.0844   -2.1776   58.0655 H       1  ZINC000840464592    0.1000
     54 H54       -11.5394   -0.5078   57.5197 H       1  ZINC000840464592    0.1200
     55 H55        -9.2570    0.4059   57.6562 H       1  ZINC000840464592    0.1200
     56 H56        -7.6645   -0.5000   59.3015 H       1  ZINC000840464592    0.1200
     57 H57        -8.3548   -2.3189   60.8108 H       1  ZINC000840464592    0.1200
     58 H58       -10.6387   -3.2294   60.6775 H       1  ZINC000840464592    0.1200
@<TRIPOS>BOND
     1     1     2    1
     2     1    29    1
     3     1    30    1
     4     1    31    1
     5     2     3    1
     6     2    32    1
     7     2    33    1
     8     3     4    1
     9     3    34    1
    10     3    35    1
    11     4     5    1
    12     4    36    1
    13     4    37    1
    14     5     6    1
    15     5    38    1
    16     5    39    1
    17     6     7    1
    18     6    40    1
    19     6    41    1
    20     7     8    1
    21     8     9    1
    22     8    10    1
    23     8    11    1
    24    10    42    1
    25    10    43    1
    26    10    44    1
    27    11    12    2
    28    11    13   am
    29    13    20    1
    30    13    14    1
    31    14    15    1
    32    14    45    1
    33    14    46    1
    34    15    16    1
    35    15    47    1
    36    15    48    1
    37    16    17    1
    38    16    49    1
    39    16    50    1
    40    17    18   am
    41    17    51    1
    42    18    19    2
    43    18    20    1
    44    20    21    1
    45    20    22    1
    46    22    23    1
    47    22    52    1
    48    22    53    1
    49    23    28   ar
    50    23    24   ar
    51    24    25   ar
    52    24    54    1
    53    25    26   ar
    54    25    55    1
    55    26    27   ar
    56    26    56    1
    57    27    28   ar
    58    27    57    1
    59    28    58    1
@<TRIPOS>SUBSTRUCTURE
     1 ZINC000840464592        1 TEMP              0 ****  ****    0 ROOT


##########                                Name:    ZINC000655235556
##########                DOCK_Rotatable_Bonds:                   6
##########                         Heavy_Atoms:                  23
##########                    Molecular_Weight:             336.778
##########                DOCK_Rotatable_Bonds:                   6
##########                       Formal_Charge:         -0.00999996
##########                     HBond_Acceptors:                   8
##########                        HBond_Donors:                   2
##########                         Heavy_Atoms:                  23
##########                          Grid_Score:          -29.260141
##########                     Grid_vdw_energy:          -29.650652
##########                      Grid_es_energy:            0.390510
##########           Internal_energy_repulsive:            4.976182

@<TRIPOS>MOLECULE
ZINC000655235556
 40 42 1 0 0
SMALL
USER_CHARGES


@<TRIPOS>ATOM
      1 C1         -5.6550    3.7404   53.6377 C.3     1  ZINC000655235556    0.0200
      2 O2         -6.5305    3.4727   52.5404 O.3     1  ZINC000655235556   -0.2700
      3 C3         -6.8533    2.1750   52.3125 C.ar    1  ZINC000655235556    0.2000
      4 C4         -7.6826    1.4990   53.1935 C.ar    1  ZINC000655235556   -0.2100
      5 C5         -8.0110    0.1766   52.9595 C.ar    1  ZINC000655235556    0.0300
      6 Cl6        -9.0503   -0.6639   54.0673 Cl      1  ZINC000655235556   -0.0500
      7 C7         -7.5152   -0.4820   51.8445 C.ar    1  ZINC000655235556   -0.1600
      8 C8         -6.6897    0.1758   50.9591 C.ar    1  ZINC000655235556   -0.0300
      9 C9         -6.3541    1.5136   51.1814 C.ar    1  ZINC000655235556   -0.1700
     10 C10        -5.4713    2.2232   50.2370 C.2     1  ZINC000655235556    0.5700
     11 O11        -5.8793    2.5231   49.1314 O.2     1  ZINC000655235556   -0.5100
     12 N12        -4.2122    2.5393   50.5992 N.am    1  ZINC000655235556   -0.7300
     13 C13        -3.3356    3.2458   49.6617 C.3     1  ZINC000655235556    0.2100
     14 C14        -2.7585    2.2631   48.6758 C.2     1  ZINC000655235556    0.2600
     15 N15        -2.4680    2.5110   47.4244 N.2     1  ZINC000655235556   -0.5100
     16 C16        -1.9765    1.4145   46.8487 C.2     1  ZINC000655235556    0.2200
     17 C17        -1.5264    1.3051   45.4146 C.3     1  ZINC000655235556    0.1700
     18 H18        -2.3446    0.9340   44.7977 H       1  ZINC000655235556    0.1100
     19 C19        -0.3198    0.3471   45.3161 C.3     1  ZINC000655235556   -0.1400
     20 C20         0.5763    1.0530   44.2622 C.3     1  ZINC000655235556   -0.1500
     21 C21         0.2900    2.5417   44.5825 C.3     1  ZINC000655235556    0.0500
     22 O22        -1.1026    2.5881   44.9392 O.3     1  ZINC000655235556   -0.3700
     23 N23        -1.9474    0.4493   47.7297 N.2     1  ZINC000655235556   -0.2800
     24 N24        -2.4470    0.9804   48.9301 N.pl3   1  ZINC000655235556   -0.4700
     25 H25        -6.1115    3.3854   54.5617 H       1  ZINC000655235556    0.0600
     26 H26        -4.7070    3.2261   53.4799 H       1  ZINC000655235556    0.0600
     27 H27        -5.4788    4.8137   53.7084 H       1  ZINC000655235556    0.1100
     28 H28        -8.0725    2.0057   54.0640 H       1  ZINC000655235556    0.1500
     29 H29        -7.7770   -1.5150   51.6697 H       1  ZINC000655235556    0.1400
     30 H30        -6.3056   -0.3411   50.0921 H       1  ZINC000655235556    0.1400
     31 H31        -3.8863    2.2990   51.4807 H       1  ZINC000655235556    0.4000
     32 H32        -3.9101    4.0021   49.1268 H       1  ZINC000655235556    0.1000
     33 H33        -2.5266    3.7259   50.2121 H       1  ZINC000655235556    0.1100
     34 H34         0.1944    0.2710   46.2741 H       1  ZINC000655235556    0.0800
     35 H35        -0.6327   -0.6357   44.9634 H       1  ZINC000655235556    0.0900
     36 H36         1.6283    0.8131   44.4172 H       1  ZINC000655235556    0.0900
     37 H37         0.2632    0.8019   43.2488 H       1  ZINC000655235556    0.0800
     38 H38         0.9064    2.8744   45.4175 H       1  ZINC000655235556    0.0600
     39 H39         0.4755    3.1600   43.7042 H       1  ZINC000655235556    0.0900
     40 H40        -2.5524    0.5126   49.7733 H       1  ZINC000655235556    0.4400
@<TRIPOS>BOND
     1     1     2    1
     2     1    25    1
     3     1    26    1
     4     1    27    1
     5     2     3    1
     6     3     9   ar
     7     3     4   ar
     8     4     5   ar
     9     4    28    1
    10     5     6    1
    11     5     7   ar
    12     7     8   ar
    13     7    29    1
    14     8     9   ar
    15     8    30    1
    16     9    10    1
    17    10    11    2
    18    10    12   am
    19    12    13    1
    20    12    31    1
    21    13    14    1
    22    13    32    1
    23    13    33    1
    24    14    24    1
    25    14    15    2
    26    15    16    1
    27    16    17    1
    28    16    23    2
    29    17    18    1
    30    17    22    1
    31    17    19    1
    32    19    20    1
    33    19    34    1
    34    19    35    1
    35    20    21    1
    36    20    36    1
    37    20    37    1
    38    21    22    1
    39    21    38    1
    40    21    39    1
    41    23    24    1
    42    24    40    1
@<TRIPOS>SUBSTRUCTURE
     1 ZINC000655235556        1 TEMP              0 ****  ****    0 ROOT


##########                                Name:    ZINC000504860563
##########                DOCK_Rotatable_Bonds:                   6
##########                         Heavy_Atoms:                  25
##########                    Molecular_Weight:             370.786
##########                DOCK_Rotatable_Bonds:                   6
##########                       Formal_Charge:                0.01
##########                     HBond_Acceptors:                   9
##########                        HBond_Donors:                   0
##########                         Heavy_Atoms:                  25
##########                          Grid_Score:          -29.246824
##########                     Grid_vdw_energy:          -28.343225
##########                      Grid_es_energy:           -0.903599
##########           Internal_energy_repulsive:           12.537804

@<TRIPOS>MOLECULE
ZINC000504860563
 42 44 1 0 0
SMALL
USER_CHARGES


@<TRIPOS>ATOM
      1 O1         -4.0384    4.4630   49.7946 O.2     1  ZINC000504860563   -0.5100
      2 C2         -4.2153    3.2732   49.6198 C.2     1  ZINC000504860563    0.5700
      3 C3         -3.1383    2.4433   49.0394 C.ar    1  ZINC000504860563    0.0500
      4 N4         -3.1479    2.1636   47.7408 N.ar    1  ZINC000504860563   -0.4100
      5 C5         -2.2096    1.4302   47.1856 C.ar    1  ZINC000504860563    0.0600
      6 C6         -1.1644    0.9149   47.9383 C.ar    1  ZINC000504860563   -0.1000
      7 C7         -1.1094    1.1778   49.2954 C.ar    1  ZINC000504860563   -0.1700
      8 C8         -2.1124    1.9622   49.8604 C.ar    1  ZINC000504860563    0.1400
      9 O9         -2.1002    2.2469   51.1866 O.3     1  ZINC000504860563   -0.2600
     10 C10        -0.9024    2.8184   51.7164 C.3     1  ZINC000504860563   -0.0100
     11 C11        -0.8587    4.3110   51.3831 C.3     1  ZINC000504860563    0.2800
     12 F12         0.2446    4.8973   52.0128 F       1  ZINC000504860563   -0.1900
     13 F13        -0.7475    4.4766   49.9983 F       1  ZINC000504860563   -0.1900
     14 N14        -5.3912    2.7095   49.9603 N.am    1  ZINC000504860563   -0.6000
     15 C15        -5.6157    1.2705   49.7662 C.3     1  ZINC000504860563    0.0800
     16 C16        -6.0750    0.6597   51.0938 C.3     1  ZINC000504860563   -0.1500
     17 C17        -7.2986    1.4232   51.6057 C.3     1  ZINC000504860563    0.1600
     18 N18        -7.7608    0.8209   52.8585 N.pl3   1  ZINC000504860563   -0.3600
     19 C19        -8.7224   -0.1193   52.9808 C.2     1  ZINC000504860563    0.0700
     20 C20        -8.8505   -0.4094   54.2968 C.2     1  ZINC000504860563   -0.1900
     21 Cl21       -9.9537   -1.5584   54.9872 Cl      1  ZINC000504860563   -0.0400
     22 C22        -7.9359    0.3804   55.0025 C.2     1  ZINC000504860563    0.0600
     23 N23        -7.2790    1.1141   54.1409 N.2     1  ZINC000504860563   -0.2800
     24 C24        -6.9230    2.8863   51.8514 C.3     1  ZINC000504860563   -0.1400
     25 C25        -6.4710    3.5212   50.5381 C.3     1  ZINC000504860563    0.1200
     26 H26        -2.2530    1.2248   46.1262 H       1  ZINC000504860563    0.1700
     27 H27        -0.4002    0.3133   47.4688 H       1  ZINC000504860563    0.1500
     28 H28        -0.3054    0.7876   49.9018 H       1  ZINC000504860563    0.1500
     29 H29        -0.8849    2.6872   52.7984 H       1  ZINC000504860563    0.1000
     30 H30        -0.0375    2.3223   51.2762 H       1  ZINC000504860563    0.1000
     31 H31        -1.7734    4.7886   51.7339 H       1  ZINC000504860563    0.1300
     32 H32        -6.3848    1.1195   49.0089 H       1  ZINC000504860563    0.0700
     33 H33        -4.6878    0.7958   49.4472 H       1  ZINC000504860563    0.1600
     34 H34        -6.3372   -0.3873   50.9411 H       1  ZINC000504860563    0.0900
     35 H35        -5.2698    0.7308   51.8250 H       1  ZINC000504860563    0.0700
     36 H36        -8.0949    1.3728   50.8630 H       1  ZINC000504860563    0.1100
     37 H37        -9.2883   -0.5602   52.1735 H       1  ZINC000504860563    0.1800
     38 H38        -7.7942    0.3817   56.0732 H       1  ZINC000504860563    0.1900
     39 H39        -7.7886    3.4241   52.2381 H       1  ZINC000504860563    0.0900
     40 H40        -6.1097    2.9364   52.5754 H       1  ZINC000504860563    0.0800
     41 H41        -6.1093    4.5321   50.7264 H       1  ZINC000504860563    0.1000
     42 H42        -7.3083    3.5545   49.8410 H       1  ZINC000504860563    0.0800
@<TRIPOS>BOND
     1     1     2    2
     2     2     3    1
     3     2    14   am
     4     3     8   ar
     5     3     4   ar
     6     4     5   ar
     7     5     6   ar
     8     5    26    1
     9     6     7   ar
    10     6    27    1
    11     7     8   ar
    12     7    28    1
    13     8     9    1
    14     9    10    1
    15    10    11    1
    16    10    29    1
    17    10    30    1
    18    11    12    1
    19    11    13    1
    20    11    31    1
    21    14    25    1
    22    14    15    1
    23    15    16    1
    24    15    32    1
    25    15    33    1
    26    16    17    1
    27    16    34    1
    28    16    35    1
    29    17    18    1
    30    17    24    1
    31    17    36    1
    32    18    23    1
    33    18    19    1
    34    19    20    2
    35    19    37    1
    36    20    21    1
    37    20    22    1
    38    22    23    2
    39    22    38    1
    40    24    25    1
    41    24    39    1
    42    24    40    1
    43    25    41    1
    44    25    42    1
@<TRIPOS>SUBSTRUCTURE
     1 ZINC000504860563        1 TEMP              0 ****  ****    0 ROOT


##########                                Name:    ZINC001082278299
##########                DOCK_Rotatable_Bonds:                   9
##########                         Heavy_Atoms:                  25
##########                    Molecular_Weight:              346.47
##########                DOCK_Rotatable_Bonds:                   9
##########                       Formal_Charge:           0.0200001
##########                     HBond_Acceptors:                   5
##########                        HBond_Donors:                   1
##########                         Heavy_Atoms:                  25
##########                          Grid_Score:          -29.246510
##########                     Grid_vdw_energy:          -28.333445
##########                      Grid_es_energy:           -0.913065
##########           Internal_energy_repulsive:           85.782051

@<TRIPOS>MOLECULE
ZINC001082278299
 55 57 1 0 0
SMALL
USER_CHARGES


@<TRIPOS>ATOM
      1 C1         -8.7463    2.2305   63.8461 C.3     1  ZINC001082278299   -0.1300
      2 C2         -8.0503    1.0803   64.5270 C.2     1  ZINC001082278299    0.0000
      3 C3         -8.2477   -0.1635   64.0996 C.2     1  ZINC001082278299   -0.2300
      4 C4         -9.1456   -0.4168   62.9623 C.2     1  ZINC001082278299    0.5400
      5 O5        -10.3134   -0.0832   63.0235 O.2     1  ZINC001082278299   -0.5300
      6 N6         -8.6739   -1.0185   61.8523 N.am    1  ZINC001082278299   -0.7400
      7 C7         -9.5687   -1.2723   60.7204 C.3     1  ZINC001082278299    0.1300
      8 C8         -8.9851   -0.6369   59.4568 C.3     1  ZINC001082278299    0.1400
      9 H9         -8.0525   -1.1363   59.1939 H       1  ZINC001082278299    0.0800
     10 C10        -8.7184    0.8508   59.7061 C.3     1  ZINC001082278299   -0.1300
     11 C11        -8.2671    1.5099   58.4007 C.3     1  ZINC001082278299   -0.1200
     12 C12        -9.3773    1.3869   57.3547 C.3     1  ZINC001082278299   -0.1400
     13 C13        -9.6514   -0.0948   57.0786 C.3     1  ZINC001082278299    0.1100
     14 N14        -9.9435   -0.7697   58.3510 N.am    1  ZINC001082278299   -0.6100
     15 C15       -11.0712   -1.4921   58.5021 C.2     1  ZINC001082278299    0.5100
     16 O16       -11.3007   -2.0444   59.5571 O.2     1  ZINC001082278299   -0.5100
     17 C17       -12.0469   -1.6137   57.3601 C.3     1  ZINC001082278299   -0.1100
     18 C18       -13.2656   -2.3719   57.8191 C.2     1  ZINC001082278299   -0.0900
     19 C19       -14.2084   -1.7247   58.4371 C.2     1  ZINC001082278299   -0.1800
     20 C20       -15.4576   -2.3892   58.9420 C.3     1  ZINC001082278299    0.0900
     21 O21       -15.6072   -3.6769   58.3408 O.3     1  ZINC001082278299   -0.3800
     22 C22       -14.4228   -4.4785   58.4310 C.3     1  ZINC001082278299    0.0600
     23 C23       -13.3474   -3.8472   57.5394 C.3     1  ZINC001082278299   -0.1100
     24 C24        -7.1304    1.3395   65.6922 C.3     1  ZINC001082278299   -0.1200
     25 C25        -7.7708    1.5346   67.0680 C.3     1  ZINC001082278299   -0.1900
     26 C26        -7.0098    0.2448   66.7542 C.3     1  ZINC001082278299   -0.1500
     27 H27        -9.7066    2.4112   64.3291 H       1  ZINC001082278299    0.0800
     28 H28        -8.1280    3.1250   63.9208 H       1  ZINC001082278299    0.0800
     29 H29        -8.9079    1.9871   62.7959 H       1  ZINC001082278299    0.0700
     30 H30        -7.7488   -0.9877   64.5877 H       1  ZINC001082278299    0.1300
     31 H31        -7.7422   -1.2836   61.8031 H       1  ZINC001082278299    0.3900
     32 H32        -9.6714   -2.3473   60.5723 H       1  ZINC001082278299    0.0900
     33 H33       -10.5472   -0.8387   60.9263 H       1  ZINC001082278299    0.0800
     34 H34        -9.6317    1.3300   60.0588 H       1  ZINC001082278299    0.0700
     35 H35        -7.9366    0.9594   60.4578 H       1  ZINC001082278299    0.0800
     36 H36        -8.0530    2.5634   58.5809 H       1  ZINC001082278299    0.0700
     37 H37        -7.3676    1.0141   58.0356 H       1  ZINC001082278299    0.0700
     38 H38       -10.2844    1.8611   57.7294 H       1  ZINC001082278299    0.0700
     39 H39        -9.0644    1.8770   56.4327 H       1  ZINC001082278299    0.0800
     40 H40       -10.5068   -0.1898   56.4097 H       1  ZINC001082278299    0.0900
     41 H41        -8.7736   -0.5494   56.6194 H       1  ZINC001082278299    0.0700
     42 H42       -12.3420   -0.6187   57.0269 H       1  ZINC001082278299    0.1000
     43 H43       -11.5758   -2.1481   56.5351 H       1  ZINC001082278299    0.1000
     44 H44       -14.0882   -0.6631   58.5948 H       1  ZINC001082278299    0.1100
     45 H45       -15.3952   -2.5008   60.0246 H       1  ZINC001082278299    0.0600
     46 H46       -16.3209   -1.7719   58.6936 H       1  ZINC001082278299    0.1000
     47 H47       -14.0774   -4.5082   59.4644 H       1  ZINC001082278299    0.0600
     48 H48       -14.6369   -5.4899   58.0858 H       1  ZINC001082278299    0.1000
     49 H49       -13.6021   -4.0109   56.4922 H       1  ZINC001082278299    0.0800
     50 H50       -12.3825   -4.3067   57.7539 H       1  ZINC001082278299    0.0800
     51 H51        -6.2370    1.9214   65.4655 H       1  ZINC001082278299    0.1300
     52 H52        -7.2988    2.2449   67.7467 H       1  ZINC001082278299    0.1000
     53 H53        -8.8574    1.4753   67.1303 H       1  ZINC001082278299    0.1000
     54 H54        -7.5959   -0.6629   66.6101 H       1  ZINC001082278299    0.0900
     55 H55        -6.0373    0.1067   67.2265 H       1  ZINC001082278299    0.1000
@<TRIPOS>BOND
     1     1     2    1
     2     1    27    1
     3     1    28    1
     4     1    29    1
     5     2     3    2
     6     2    24    1
     7     3     4    1
     8     3    30    1
     9     4     5    2
    10     4     6   am
    11     6     7    1
    12     6    31    1
    13     7     8    1
    14     7    32    1
    15     7    33    1
    16     8     9    1
    17     8    14    1
    18     8    10    1
    19    10    11    1
    20    10    34    1
    21    10    35    1
    22    11    12    1
    23    11    36    1
    24    11    37    1
    25    12    13    1
    26    12    38    1
    27    12    39    1
    28    13    14    1
    29    13    40    1
    30    13    41    1
    31    14    15   am
    32    15    16    2
    33    15    17    1
    34    17    18    1
    35    17    42    1
    36    17    43    1
    37    18    23    1
    38    18    19    2
    39    19    20    1
    40    19    44    1
    41    20    21    1
    42    20    45    1
    43    20    46    1
    44    21    22    1
    45    22    23    1
    46    22    47    1
    47    22    48    1
    48    23    49    1
    49    23    50    1
    50    24    26    1
    51    24    25    1
    52    24    51    1
    53    25    26    1
    54    25    52    1
    55    25    53    1
    56    26    54    1
    57    26    55    1
@<TRIPOS>SUBSTRUCTURE
     1 ZINC001082278299        1 TEMP              0 ****  ****    0 ROOT


##########                                Name:    ZINC000800038938
##########                DOCK_Rotatable_Bonds:                   6
##########                         Heavy_Atoms:                  25
##########                    Molecular_Weight:             386.274
##########                DOCK_Rotatable_Bonds:                   6
##########                       Formal_Charge:           0.0200003
##########                     HBond_Acceptors:                   7
##########                        HBond_Donors:                   0
##########                         Heavy_Atoms:                  25
##########                          Grid_Score:          -29.238007
##########                     Grid_vdw_energy:          -28.355972
##########                      Grid_es_energy:           -0.882034
##########           Internal_energy_repulsive:            9.581843

@<TRIPOS>MOLECULE
ZINC000800038938
 46 48 1 0 0
SMALL
USER_CHARGES


@<TRIPOS>ATOM
      1 C1        -13.4872   -5.5249   57.2396 C.3     1  ZINC000800038938    0.0300
      2 O2        -12.3655   -4.6618   57.0419 O.3     1  ZINC000800038938   -0.3800
      3 C3        -12.6849   -3.2703   57.1034 C.3     1  ZINC000800038938    0.0900
      4 H4        -13.0730   -3.0199   58.0907 H       1  ZINC000800038938    0.0700
      5 C5        -13.7267   -2.9190   56.0214 C.3     1  ZINC000800038938   -0.1400
      6 C6        -13.3053   -1.5115   55.5311 C.3     1  ZINC000800038938   -0.1400
      7 C7        -11.7586   -1.5947   55.5420 C.3     1  ZINC000800038938    0.0900
      8 H8        -11.3973   -2.0989   54.6458 H       1  ZINC000800038938    0.0900
      9 O9        -11.1790   -0.2674   55.6455 O.3     1  ZINC000800038938   -0.3500
     10 C10        -9.8574   -0.1615   55.4356 C.2     1  ZINC000800038938    0.4500
     11 O11        -9.2067   -1.1452   55.1735 O.2     1  ZINC000800038938   -0.4800
     12 C12        -9.1854    1.1843   55.5269 C.3     1  ZINC000800038938    0.1500
     13 H13        -9.9338    1.9757   55.4854 H       1  ZINC000800038938    0.1200
     14 C14        -8.3882    1.2845   56.8446 C.3     1  ZINC000800038938   -0.1200
     15 C15        -7.1106    2.0559   56.4198 C.3     1  ZINC000800038938   -0.1300
     16 C16        -6.8758    1.5058   54.9909 C.3     1  ZINC000800038938    0.0900
     17 N17        -8.2293    1.3417   54.4213 N.am    1  ZINC000800038938   -0.6000
     18 C18        -8.5334    1.3346   53.1083 C.2     1  ZINC000800038938    0.5800
     19 O19        -9.6868    1.1913   52.7524 O.2     1  ZINC000800038938   -0.4900
     20 C20        -7.4646    1.5008   52.1015 C.ar    1  ZINC000800038938   -0.1100
     21 C21        -7.1333    2.7736   51.6343 C.ar    1  ZINC000800038938   -0.0700
     22 C22        -6.1337    2.9217   50.6936 C.ar    1  ZINC000800038938   -0.0400
     23 Cl23       -5.7198    4.5040   50.1116 Cl      1  ZINC000800038938   -0.0500
     24 C24        -5.4602    1.8110   50.2134 C.ar    1  ZINC000800038938   -0.0700
     25 C25        -5.7835    0.5468   50.6716 C.ar    1  ZINC000800038938   -0.1000
     26 C26        -6.7771    0.3848   51.6171 C.ar    1  ZINC000800038938    0.0100
     27 Cl27       -7.1816   -1.2029   52.1910 Cl      1  ZINC000800038938   -0.0300
     28 C28       -11.4333   -2.4283   56.7999 C.3     1  ZINC000800038938   -0.1200
     29 H29       -13.1618   -6.5634   57.1782 H       1  ZINC000800038938    0.0900
     30 H30       -13.9211   -5.3376   58.2217 H       1  ZINC000800038938    0.0400
     31 H31       -14.2342   -5.3320   56.4695 H       1  ZINC000800038938    0.0400
     32 H32       -13.6833   -3.6371   55.2025 H       1  ZINC000800038938    0.0800
     33 H33       -14.7280   -2.8892   56.4512 H       1  ZINC000800038938    0.0800
     34 H34       -13.6750   -1.3270   54.5223 H       1  ZINC000800038938    0.0800
     35 H35       -13.6556   -0.7419   56.2187 H       1  ZINC000800038938    0.0800
     36 H36        -8.9477    1.8469   57.5921 H       1  ZINC000800038938    0.1000
     37 H37        -8.1336    0.2925   57.2175 H       1  ZINC000800038938    0.0900
     38 H38        -7.2916    3.1306   56.4000 H       1  ZINC000800038938    0.0900
     39 H39        -6.2729    1.8144   57.0740 H       1  ZINC000800038938    0.1000
     40 H40        -6.3009    2.2186   54.3998 H       1  ZINC000800038938    0.0900
     41 H41        -6.3620    0.5454   55.0337 H       1  ZINC000800038938    0.0800
     42 H42        -7.6579    3.6406   52.0076 H       1  ZINC000800038938    0.1500
     43 H43        -4.6791    1.9325   49.4776 H       1  ZINC000800038938    0.1500
     44 H44        -5.2545   -0.3153   50.2926 H       1  ZINC000800038938    0.1500
     45 H45       -11.2137   -1.7680   57.6390 H       1  ZINC000800038938    0.0900
     46 H46       -10.5823   -3.0811   56.6054 H       1  ZINC000800038938    0.0900
@<TRIPOS>BOND
     1     1     2    1
     2     1    29    1
     3     1    30    1
     4     1    31    1
     5     2     3    1
     6     3     4    1
     7     3    28    1
     8     3     5    1
     9     5     6    1
    10     5    32    1
    11     5    33    1
    12     6     7    1
    13     6    34    1
    14     6    35    1
    15     7     8    1
    16     7     9    1
    17     7    28    1
    18     9    10    1
    19    10    11    2
    20    10    12    1
    21    12    13    1
    22    12    17    1
    23    12    14    1
    24    14    15    1
    25    14    36    1
    26    14    37    1
    27    15    16    1
    28    15    38    1
    29    15    39    1
    30    16    17    1
    31    16    40    1
    32    16    41    1
    33    17    18   am
    34    18    19    2
    35    18    20    1
    36    20    26   ar
    37    20    21   ar
    38    21    22   ar
    39    21    42    1
    40    22    23    1
    41    22    24   ar
    42    24    25   ar
    43    24    43    1
    44    25    26   ar
    45    25    44    1
    46    26    27    1
    47    28    45    1
    48    28    46    1
@<TRIPOS>SUBSTRUCTURE
     1 ZINC000800038938        1 TEMP              0 ****  ****    0 ROOT


##########                                Name:    ZINC000945148121
##########                DOCK_Rotatable_Bonds:                   6
##########                         Heavy_Atoms:                  24
##########                    Molecular_Weight:             332.446
##########                DOCK_Rotatable_Bonds:                   6
##########                       Formal_Charge:           0.0100009
##########                     HBond_Acceptors:                   6
##########                        HBond_Donors:                   2
##########                         Heavy_Atoms:                  24
##########                          Grid_Score:          -29.213064
##########                     Grid_vdw_energy:          -26.760254
##########                      Grid_es_energy:           -2.452811
##########           Internal_energy_repulsive:           16.701048

@<TRIPOS>MOLECULE
ZINC000945148121
 52 54 1 0 0
SMALL
USER_CHARGES


@<TRIPOS>ATOM
      1 O1         -9.9700    1.0082   63.1653 O.2     1  ZINC000945148121   -0.5100
      2 C2         -8.9206    0.4091   63.0622 C.2     1  ZINC000945148121    0.5200
      3 C3         -7.8579    0.5631   64.1196 C.3     1  ZINC000945148121   -0.0500
      4 C4         -8.3980    0.0952   65.4465 C.2     1  ZINC000945148121    0.0100
      5 C5         -8.8346    0.8849   66.4462 C.2     1  ZINC000945148121   -0.0500
      6 N6         -9.2355    0.0563   67.4592 N.pl3   1  ZINC000945148121   -0.5700
      7 C7         -9.0301   -1.2119   67.0429 C.2     1  ZINC000945148121    0.1800
      8 N8         -8.5337   -1.1810   65.8363 N.2     1  ZINC000945148121   -0.4700
      9 N9         -8.7068   -0.3989   62.0048 N.am    1  ZINC000945148121   -0.7300
     10 C10        -9.7398   -0.5486   60.9769 C.3     1  ZINC000945148121    0.1500
     11 C11        -9.4247    0.3762   59.7989 C.3     1  ZINC000945148121   -0.1400
     12 C12       -10.5250    0.2426   58.7414 C.3     1  ZINC000945148121    0.1100
     13 N13       -10.6609   -1.1742   58.3767 N.am    1  ZINC000945148121   -0.6100
     14 C14       -10.5893   -1.5614   57.0877 C.2     1  ZINC000945148121    0.5200
     15 O15       -10.7045   -2.7338   56.7995 O.2     1  ZINC000945148121   -0.5400
     16 C16       -10.3662   -0.5376   56.0047 C.3     1  ZINC000945148121   -0.1000
     17 C17        -8.9122   -0.1524   55.9649 C.3     1  ZINC000945148121   -0.1200
     18 C18        -8.7040    1.3246   55.5794 C.3     1  ZINC000945148121   -0.1200
     19 C19        -9.6329    1.7810   54.4382 C.3     1  ZINC000945148121   -0.1200
     20 C20        -9.7571    0.7496   53.3496 C.3     1  ZINC000945148121   -0.1200
     21 C21       -11.0031   -0.1143   53.6332 C.3     1  ZINC000945148121   -0.1200
     22 C22       -10.7518   -1.1377   54.6371 C.3     1  ZINC000945148121   -0.1000
     23 C23       -10.8758   -2.1610   59.4440 C.3     1  ZINC000945148121    0.1100
     24 C24        -9.7715   -2.0004   60.4935 C.3     1  ZINC000945148121   -0.1400
     25 H25        -6.9877   -0.0355   63.8502 H       1  ZINC000945148121    0.1000
     26 H26        -7.5689    1.6114   64.1943 H       1  ZINC000945148121    0.1000
     27 H27        -8.8624    1.9645   66.4483 H       1  ZINC000945148121    0.1800
     28 H28        -9.5994    0.3291   68.3160 H       1  ZINC000945148121    0.4200
     29 H29        -9.2448   -2.1040   67.6125 H       1  ZINC000945148121    0.2100
     30 H30        -7.8690   -0.8811   61.9244 H       1  ZINC000945148121    0.4000
     31 H31       -10.7106   -0.2842   61.3962 H       1  ZINC000945148121    0.0900
     32 H32        -9.3793    1.4077   60.1482 H       1  ZINC000945148121    0.0800
     33 H33        -8.4656    0.0965   59.3631 H       1  ZINC000945148121    0.0700
     34 H34       -11.4685    0.6074   59.1476 H       1  ZINC000945148121    0.0700
     35 H35       -10.2561    0.8229   57.8588 H       1  ZINC000945148121    0.1000
     36 H36       -10.9762    0.3438   56.2028 H       1  ZINC000945148121    0.1000
     37 H37        -8.4745   -0.3254   56.9481 H       1  ZINC000945148121    0.0700
     38 H38        -8.4003   -0.7823   55.2374 H       1  ZINC000945148121    0.0700
     39 H39        -8.8913    1.9463   56.4550 H       1  ZINC000945148121    0.0600
     40 H40        -7.6690    1.4639   55.2672 H       1  ZINC000945148121    0.0700
     41 H41       -10.6226    1.9820   54.8482 H       1  ZINC000945148121    0.0600
     42 H42        -9.2377    2.7014   54.0084 H       1  ZINC000945148121    0.0600
     43 H43        -9.8676    1.2461   52.3856 H       1  ZINC000945148121    0.0600
     44 H44        -8.8685    0.1185   53.3399 H       1  ZINC000945148121    0.0700
     45 H45       -11.8087    0.5318   53.9818 H       1  ZINC000945148121    0.0600
     46 H46       -11.3159   -0.5972   52.7074 H       1  ZINC000945148121    0.0600
     47 H47        -9.9410   -1.7792   54.2919 H       1  ZINC000945148121    0.0700
     48 H48       -11.6508   -1.7422   54.7577 H       1  ZINC000945148121    0.0700
     49 H49       -11.8478   -1.9922   59.9074 H       1  ZINC000945148121    0.0700
     50 H50       -10.8381   -3.1665   59.0249 H       1  ZINC000945148121    0.1000
     51 H51        -8.8091   -2.2576   60.0513 H       1  ZINC000945148121    0.0700
     52 H52        -9.9728   -2.6604   61.3373 H       1  ZINC000945148121    0.0800
@<TRIPOS>BOND
     1     1     2    2
     2     2     3    1
     3     2     9   am
     4     3     4    1
     5     3    25    1
     6     3    26    1
     7     4     8    1
     8     4     5    2
     9     5     6    1
    10     5    27    1
    11     6     7    1
    12     6    28    1
    13     7     8    2
    14     7    29    1
    15     9    10    1
    16     9    30    1
    17    10    24    1
    18    10    11    1
    19    10    31    1
    20    11    12    1
    21    11    32    1
    22    11    33    1
    23    12    13    1
    24    12    34    1
    25    12    35    1
    26    13    14   am
    27    13    23    1
    28    14    15    2
    29    14    16    1
    30    16    22    1
    31    16    17    1
    32    16    36    1
    33    17    18    1
    34    17    37    1
    35    17    38    1
    36    18    19    1
    37    18    39    1
    38    18    40    1
    39    19    20    1
    40    19    41    1
    41    19    42    1
    42    20    21    1
    43    20    43    1
    44    20    44    1
    45    21    22    1
    46    21    45    1
    47    21    46    1
    48    22    47    1
    49    22    48    1
    50    23    24    1
    51    23    49    1
    52    23    50    1
    53    24    51    1
    54    24    52    1
@<TRIPOS>SUBSTRUCTURE
     1 ZINC000945148121        1 TEMP              0 ****  ****    0 ROOT


##########                                Name:    ZINC000277085192
##########                DOCK_Rotatable_Bonds:                   4
##########                         Heavy_Atoms:                  23
##########                    Molecular_Weight:             335.747
##########                DOCK_Rotatable_Bonds:                   4
##########                       Formal_Charge:         5.96046e-08
##########                     HBond_Acceptors:                   8
##########                        HBond_Donors:                   2
##########                         Heavy_Atoms:                  23
##########                          Grid_Score:          -29.204243
##########                     Grid_vdw_energy:          -26.216442
##########                      Grid_es_energy:           -2.987801
##########           Internal_energy_repulsive:            7.886688

@<TRIPOS>MOLECULE
ZINC000277085192
 37 39 1 0 0
SMALL
USER_CHARGES


@<TRIPOS>ATOM
      1 O1        -10.0449   -0.7988   62.3871 O.2     1  ZINC000277085192   -0.5000
      2 C2         -8.8388   -0.6709   62.4050 C.2     1  ZINC000277085192    0.5000
      3 C3         -8.1223   -0.4652   63.7146 C.3     1  ZINC000277085192    0.1100
      4 N4         -8.9186    0.4142   64.5741 N.am    1  ZINC000277085192   -0.6000
      5 C5         -9.4769    1.6501   64.0226 C.3     1  ZINC000277085192    0.1100
      6 C6        -10.8505    1.9128   64.6441 C.3     1  ZINC000277085192   -0.1600
      7 C7        -10.7627    1.7245   66.1378 C.2     1  ZINC000277085192    0.5200
      8 O8        -11.4321    2.4145   66.8764 O.2     1  ZINC000277085192   -0.5000
      9 N9         -9.9414    0.7899   66.6503 N.am    1  ZINC000277085192   -0.6700
     10 C10        -9.1308    0.0725   65.8554 C.2     1  ZINC000277085192    0.7200
     11 O11        -8.5684   -0.9048   66.3089 O.2     1  ZINC000277085192   -0.5500
     12 N12        -8.1391   -0.7185   61.2541 N.am    1  ZINC000277085192   -0.6700
     13 C13        -8.8048   -0.9096   60.0373 C.ar    1  ZINC000277085192    0.1400
     14 C14        -9.3915   -2.1291   59.7545 C.ar    1  ZINC000277085192   -0.0400
     15 C15       -10.0585   -2.3215   58.5346 C.ar    1  ZINC000277085192   -0.1700
     16 C16       -10.1226   -1.2735   57.6158 C.ar    1  ZINC000277085192   -0.0500
     17 C17        -9.5326   -0.0586   57.9099 C.ar    1  ZINC000277085192   -0.0900
     18 C18        -8.8807    0.1297   59.1148 C.ar    1  ZINC000277085192   -0.0300
     19 Cl19       -8.1438    1.6606   59.4716 Cl      1  ZINC000277085192   -0.0500
     20 C20       -10.8857   -1.7200   56.3914 C.3     1  ZINC000277085192   -0.0800
     21 C21       -11.2962   -3.1766   56.6469 C.3     1  ZINC000277085192   -0.1700
     22 C22       -10.7507   -3.5115   58.0138 C.2     1  ZINC000277085192    0.4100
     23 O23       -10.8634   -4.5758   58.5840 O.2     1  ZINC000277085192   -0.4300
     24 H24        -7.9836   -1.4272   64.2080 H       1  ZINC000277085192    0.1300
     25 H25        -7.1500   -0.0086   63.5290 H       1  ZINC000277085192    0.1200
     26 H26        -8.8106    2.4824   64.2491 H       1  ZINC000277085192    0.0800
     27 H27        -9.5801    1.5515   62.9419 H       1  ZINC000277085192    0.1000
     28 H28       -11.1609    2.9341   64.4234 H       1  ZINC000277085192    0.1300
     29 H29       -11.5770    1.2131   64.2310 H       1  ZINC000277085192    0.1200
     30 H30        -9.9377    0.6299   67.6070 H       1  ZINC000277085192    0.4300
     31 H31        -7.1742   -0.6201   61.2688 H       1  ZINC000277085192    0.4200
     32 H32        -9.3363   -2.9341   60.4724 H       1  ZINC000277085192    0.1500
     33 H33        -9.5843    0.7499   57.1958 H       1  ZINC000277085192    0.1500
     34 H34       -11.7716   -1.0996   56.2556 H       1  ZINC000277085192    0.1000
     35 H35       -10.2473   -1.6600   55.5100 H       1  ZINC000277085192    0.1000
     36 H36       -12.3823   -3.2694   56.6406 H       1  ZINC000277085192    0.1100
     37 H37       -10.8561   -3.8305   55.8940 H       1  ZINC000277085192    0.1100
@<TRIPOS>BOND
     1     1     2    2
     2     2     3    1
     3     2    12   am
     4     3     4    1
     5     3    24    1
     6     3    25    1
     7     4    10   am
     8     4     5    1
     9     5     6    1
    10     5    26    1
    11     5    27    1
    12     6     7    1
    13     6    28    1
    14     6    29    1
    15     7     8    2
    16     7     9   am
    17     9    10   am
    18     9    30    1
    19    10    11    2
    20    12    13    1
    21    12    31    1
    22    13    18   ar
    23    13    14   ar
    24    14    15   ar
    25    14    32    1
    26    15    22    1
    27    15    16   ar
    28    16    17   ar
    29    16    20    1
    30    17    18   ar
    31    17    33    1
    32    18    19    1
    33    20    21    1
    34    20    34    1
    35    20    35    1
    36    21    22    1
    37    21    36    1
    38    21    37    1
    39    22    23    2
@<TRIPOS>SUBSTRUCTURE
     1 ZINC000277085192        1 TEMP              0 ****  ****    0 ROOT


##########                                Name:    ZINC000629379364
##########                DOCK_Rotatable_Bonds:                   5
##########                         Heavy_Atoms:                  23
##########                    Molecular_Weight:             386.261
##########                DOCK_Rotatable_Bonds:                   5
##########                       Formal_Charge:               -0.02
##########                     HBond_Acceptors:                   5
##########                        HBond_Donors:                   1
##########                         Heavy_Atoms:                  23
##########                          Grid_Score:          -29.190392
##########                     Grid_vdw_energy:          -26.571455
##########                      Grid_es_energy:           -2.618937
##########           Internal_energy_repulsive:           21.931643

@<TRIPOS>MOLECULE
ZINC000629379364
 44 46 1 0 0
SMALL
USER_CHARGES


@<TRIPOS>ATOM
      1 O1         -0.6577    0.5180   44.3501 O.co2   1  ZINC000629379364   -0.6800
      2 C2          0.2745    0.6556   45.1237 C.2     1  ZINC000629379364    0.5000
      3 O3          1.4144    0.7305   44.6976 O.co2   1  ZINC000629379364   -0.6900
      4 C4          0.0173    0.7395   46.6062 C.3     1  ZINC000629379364   -0.1600
      5 H5          0.8474    0.2931   47.1538 H       1  ZINC000629379364    0.0800
      6 C6         -1.2936    0.0127   46.9544 C.3     1  ZINC000629379364   -0.1300
      7 C7         -1.6560    0.2024   48.4243 C.3     1  ZINC000629379364   -0.0100
      8 N8         -1.7120    1.6296   48.7954 N.4     1  ZINC000629379364   -0.3700
      9 H9         -1.9522    1.7209   49.7711 H       1  ZINC000629379364    0.4200
     10 C10        -2.7104    2.3214   47.9691 C.3     1  ZINC000629379364   -0.0200
     11 C11        -3.9079    2.7128   48.8370 C.3     1  ZINC000629379364    0.0300
     12 O12        -4.5068    1.5352   49.3816 O.3     1  ZINC000629379364   -0.3200
     13 C13        -5.6286    1.7032   50.1300 C.ar    1  ZINC000629379364    0.1600
     14 C14        -6.1425    2.9748   50.3351 C.ar    1  ZINC000629379364   -0.2300
     15 C15        -7.2850    3.1435   51.0975 C.ar    1  ZINC000629379364    0.1500
     16 F16        -7.7865    4.3819   51.2979 F       1  ZINC000629379364   -0.1200
     17 C17        -7.9145    2.0433   51.6548 C.ar    1  ZINC000629379364   -0.1600
     18 C18        -7.4021    0.7745   51.4510 C.ar    1  ZINC000629379364   -0.0300
     19 Br19       -8.2643   -0.7260   52.2135 Br      1  ZINC000629379364   -0.0100
     20 C20        -6.2645    0.6019   50.6852 C.ar    1  ZINC000629379364   -0.1300
     21 C21        -0.3937    2.1942   48.5561 C.3     1  ZINC000629379364   -0.0100
     22 H22         0.3664    1.5903   49.0518 H       1  ZINC000629379364    0.1400
     23 C23        -0.2106    3.6712   48.9204 C.3     1  ZINC000629379364   -0.1300
     24 C24         1.0041    4.0970   48.0517 C.3     1  ZINC000629379364   -0.1200
     25 C25         1.0511    3.1148   46.8553 C.3     1  ZINC000629379364   -0.1100
     26 C26        -0.1579    2.1901   47.0214 C.3     1  ZINC000629379364   -0.0700
     27 H27        -1.0296    2.6269   46.5340 H       1  ZINC000629379364    0.1000
     28 H28        -2.0975    0.4090   46.3342 H       1  ZINC000629379364    0.0800
     29 H29        -1.1772   -1.0516   46.7497 H       1  ZINC000629379364    0.1100
     30 H30        -2.6292   -0.2516   48.6115 H       1  ZINC000629379364    0.1200
     31 H31        -0.9087   -0.2959   49.0415 H       1  ZINC000629379364    0.1300
     32 H32        -2.2660    3.2181   47.5371 H       1  ZINC000629379364    0.1400
     33 H33        -3.0422    1.6589   47.1696 H       1  ZINC000629379364    0.1700
     34 H34        -3.5727    3.3586   49.6487 H       1  ZINC000629379364    0.1100
     35 H35        -4.6395    3.2443   48.2284 H       1  ZINC000629379364    0.0900
     36 H36        -5.6513    3.8328   49.9002 H       1  ZINC000629379364    0.1500
     37 H37        -8.8063    2.1759   52.2494 H       1  ZINC000629379364    0.1500
     38 H38        -5.8655   -0.3891   50.5264 H       1  ZINC000629379364    0.1500
     39 H39        -1.0965    4.2469   48.6527 H       1  ZINC000629379364    0.0800
     40 H40         0.0165    3.7814   49.9808 H       1  ZINC000629379364    0.0900
     41 H41         0.8682    5.1172   47.6930 H       1  ZINC000629379364    0.0800
     42 H42         1.9235    4.0234   48.6325 H       1  ZINC000629379364    0.0800
     43 H43         0.9936    3.6627   45.9147 H       1  ZINC000629379364    0.0900
     44 H44         1.9638    2.5198   46.8911 H       1  ZINC000629379364    0.0800
@<TRIPOS>BOND
     1     1     2   ar
     2     2     3   ar
     3     2     4    1
     4     4     5    1
     5     4    26    1
     6     4     6    1
     7     6     7    1
     8     6    28    1
     9     6    29    1
    10     7     8    1
    11     7    30    1
    12     7    31    1
    13     8     9    1
    14     8    10    1
    15     8    21    1
    16    10    11    1
    17    10    32    1
    18    10    33    1
    19    11    12    1
    20    11    34    1
    21    11    35    1
    22    12    13    1
    23    13    20   ar
    24    13    14   ar
    25    14    15   ar
    26    14    36    1
    27    15    16    1
    28    15    17   ar
    29    17    18   ar
    30    17    37    1
    31    18    19    1
    32    18    20   ar
    33    20    38    1
    34    21    22    1
    35    21    26    1
    36    21    23    1
    37    23    24    1
    38    23    39    1
    39    23    40    1
    40    24    25    1
    41    24    41    1
    42    24    42    1
    43    25    26    1
    44    25    43    1
    45    25    44    1
    46    26    27    1
@<TRIPOS>SUBSTRUCTURE
     1 ZINC000629379364        1 TEMP              0 ****  ****    0 ROOT


##########                                Name:    ZINC000329637067
##########                DOCK_Rotatable_Bonds:                   5
##########                         Heavy_Atoms:                  26
##########                    Molecular_Weight:             362.429
##########                DOCK_Rotatable_Bonds:                   5
##########                       Formal_Charge:           0.0199998
##########                     HBond_Acceptors:                   8
##########                        HBond_Donors:                   0
##########                         Heavy_Atoms:                  26
##########                          Grid_Score:          -29.169155
##########                     Grid_vdw_energy:          -29.256731
##########                      Grid_es_energy:            0.087576
##########           Internal_energy_repulsive:          125.187500

@<TRIPOS>MOLECULE
ZINC000329637067
 52 54 1 0 0
SMALL
USER_CHARGES


@<TRIPOS>ATOM
      1 C1        -10.0247    2.3251   53.1242 C.3     1  ZINC000329637067   -0.1300
      2 C2         -8.8296    1.6863   52.4647 C.2     1  ZINC000329637067    0.2200
      3 C3         -8.1078    2.3706   51.5368 C.2     1  ZINC000329637067   -0.2900
      4 C4         -7.0043    1.7513   50.9424 C.2     1  ZINC000329637067    0.2800
      5 C5         -6.1884    2.4887   49.9120 C.3     1  ZINC000329637067   -0.1200
      6 N6         -6.6791    0.5215   51.2856 N.2     1  ZINC000329637067   -0.5500
      7 C7         -7.3915   -0.1452   52.1972 C.2     1  ZINC000329637067    0.6400
      8 O8         -7.0695   -1.2826   52.4973 O.2     1  ZINC000329637067   -0.5300
      9 N9         -8.4566    0.4220   52.7939 N.am    1  ZINC000329637067   -0.5000
     10 C10        -9.2221   -0.3297   53.7914 C.3     1  ZINC000329637067    0.0700
     11 C11        -8.7966    0.0926   55.1741 C.2     1  ZINC000329637067    0.5100
     12 O12        -7.8720    0.8650   55.3145 O.2     1  ZINC000329637067   -0.5200
     13 N13        -9.4434   -0.3878   56.2545 N.am    1  ZINC000329637067   -0.6100
     14 C14        -9.0400    0.0147   57.6087 C.3     1  ZINC000329637067    0.1000
     15 C15       -10.2682    0.5525   58.3496 C.3     1  ZINC000329637067   -0.1400
     16 C16       -11.3819   -0.4964   58.3112 C.3     1  ZINC000329637067   -0.1000
     17 C17       -11.7763   -0.7711   56.8583 C.3     1  ZINC000329637067   -0.1200
     18 H18       -12.1068    0.1558   56.3895 H       1  ZINC000329637067    0.1000
     19 C19       -12.8958   -1.7794   56.8230 C.2     1  ZINC000329637067    0.5300
     20 O20       -13.9412   -1.5058   56.2726 O.2     1  ZINC000329637067   -0.5300
     21 N21       -12.7351   -2.9853   57.4032 N.am    1  ZINC000329637067   -0.6200
     22 C22       -13.8116   -3.9883   57.3762 C.3     1  ZINC000329637067    0.0800
     23 C23       -13.2249   -5.3138   56.8774 C.3     1  ZINC000329637067    0.0500
     24 O24       -12.0717   -5.6409   57.6566 O.3     1  ZINC000329637067   -0.3800
     25 C25       -11.0050   -4.6952   57.5488 C.3     1  ZINC000329637067    0.0500
     26 C26       -11.4760   -3.3400   58.0770 C.3     1  ZINC000329637067    0.0700
     27 C27       -10.5691   -1.3191   56.1002 C.3     1  ZINC000329637067    0.1200
     28 H28        -9.8977    2.3024   54.2065 H       1  ZINC000329637067    0.0900
     29 H29       -10.1144    3.3589   52.7904 H       1  ZINC000329637067    0.1000
     30 H30       -10.9262    1.7760   52.8526 H       1  ZINC000329637067    0.0900
     31 H31        -8.3836    3.3782   51.2627 H       1  ZINC000329637067    0.1600
     32 H32        -5.3850    3.0341   50.4071 H       1  ZINC000329637067    0.1000
     33 H33        -5.7624    1.7749   49.2070 H       1  ZINC000329637067    0.0900
     34 H34        -6.8279    3.1906   49.3766 H       1  ZINC000329637067    0.0900
     35 H35       -10.2853   -0.1281   53.6611 H       1  ZINC000329637067    0.1200
     36 H36        -9.0362   -1.3962   53.6639 H       1  ZINC000329637067    0.1300
     37 H37        -8.6399   -0.8475   58.1422 H       1  ZINC000329637067    0.0800
     38 H38        -8.2801    0.7938   57.5473 H       1  ZINC000329637067    0.0900
     39 H39       -10.0040    0.7648   59.3856 H       1  ZINC000329637067    0.0900
     40 H40       -10.6127    1.4670   57.8669 H       1  ZINC000329637067    0.0700
     41 H41       -11.0283   -1.4186   58.7721 H       1  ZINC000329637067    0.0800
     42 H42       -12.2485   -0.1260   58.8589 H       1  ZINC000329637067    0.0800
     43 H43       -14.2157   -4.1202   58.3798 H       1  ZINC000329637067    0.0800
     44 H44       -14.6024   -3.6600   56.7017 H       1  ZINC000329637067    0.1000
     45 H45       -13.9695   -6.1032   56.9802 H       1  ZINC000329637067    0.1100
     46 H46       -12.9403   -5.2149   55.8299 H       1  ZINC000329637067    0.0600
     47 H47       -10.1527   -5.0394   58.1346 H       1  ZINC000329637067    0.1100
     48 H48       -10.7124   -4.5940   56.5038 H       1  ZINC000329637067    0.0600
     49 H49       -10.7206   -2.5823   57.8692 H       1  ZINC000329637067    0.1000
     50 H50       -11.6465   -3.4041   59.1517 H       1  ZINC000329637067    0.0800
     51 H51       -10.8173   -1.4228   55.0438 H       1  ZINC000329637067    0.1000
     52 H52       -10.2910   -2.2904   56.5093 H       1  ZINC000329637067    0.0800
@<TRIPOS>BOND
     1     1     2    1
     2     1    28    1
     3     1    29    1
     4     1    30    1
     5     2     9    1
     6     2     3    2
     7     3     4    1
     8     3    31    1
     9     4     5    1
    10     4     6    2
    11     5    32    1
    12     5    33    1
    13     5    34    1
    14     6     7    1
    15     7     8    2
    16     7     9   am
    17     9    10    1
    18    10    11    1
    19    10    35    1
    20    10    36    1
    21    11    12    2
    22    11    13   am
    23    13    27    1
    24    13    14    1
    25    14    15    1
    26    14    37    1
    27    14    38    1
    28    15    16    1
    29    15    39    1
    30    15    40    1
    31    16    17    1
    32    16    41    1
    33    16    42    1
    34    17    18    1
    35    17    19    1
    36    17    27    1
    37    19    20    2
    38    19    21   am
    39    21    26    1
    40    21    22    1
    41    22    23    1
    42    22    43    1
    43    22    44    1
    44    23    24    1
    45    23    45    1
    46    23    46    1
    47    24    25    1
    48    25    26    1
    49    25    47    1
    50    25    48    1
    51    26    49    1
    52    26    50    1
    53    27    51    1
    54    27    52    1
@<TRIPOS>SUBSTRUCTURE
     1 ZINC000329637067        1 TEMP              0 ****  ****    0 ROOT


##########                                Name:    ZINC000894043060
##########                DOCK_Rotatable_Bonds:                  11
##########                         Heavy_Atoms:                  26
##########                    Molecular_Weight:             396.812
##########                DOCK_Rotatable_Bonds:                  11
##########                       Formal_Charge:          -0.0199999
##########                     HBond_Acceptors:                   9
##########                        HBond_Donors:                   2
##########                         Heavy_Atoms:                  26
##########                          Grid_Score:          -29.132427
##########                     Grid_vdw_energy:          -24.897821
##########                      Grid_es_energy:           -4.234606
##########           Internal_energy_repulsive:           18.051994

@<TRIPOS>MOLECULE
ZINC000894043060
 47 47 1 0 0
SMALL
USER_CHARGES


@<TRIPOS>ATOM
      1 C1         -2.7570    4.3385   54.5064 C.3     1  ZINC000894043060   -0.1700
      2 C2         -1.2343    4.4333   54.3908 C.3     1  ZINC000894043060    0.1000
      3 H3         -0.9621    5.3949   53.9555 H       1  ZINC000894043060    0.1100
      4 N4         -0.7413    3.3523   53.5337 N.am    1  ZINC000894043060   -0.7300
      5 C5          0.3298    3.5557   52.7415 C.2     1  ZINC000894043060    0.5200
      6 O6          0.8848    4.6340   52.7370 O.2     1  ZINC000894043060   -0.5200
      7 C7          0.8380    2.4430   51.8612 C.3     1  ZINC000894043060   -0.1400
      8 C8          0.4527    2.7263   50.4078 C.3     1  ZINC000894043060   -0.0200
      9 C9          1.1975    1.7594   49.4851 C.3     1  ZINC000894043060   -0.1400
     10 C10         0.6008    1.8241   48.1027 C.2     1  ZINC000894043060    0.5200
     11 O11         0.6579    2.8542   47.4652 O.2     1  ZINC000894043060   -0.5200
     12 N12         0.0036    0.7371   47.5750 N.am    1  ZINC000894043060   -0.7300
     13 C13        -0.5750    0.7996   46.2306 C.3     1  ZINC000894043060    0.1000
     14 H14         0.1918    1.1053   45.5189 H       1  ZINC000894043060    0.1200
     15 C15        -1.1110   -0.5797   45.8415 C.3     1  ZINC000894043060   -0.1700
     16 C16        -1.7196    1.8147   46.2146 C.3     1  ZINC000894043060    0.2600
     17 F17        -2.2730    1.8734   44.9311 F       1  ZINC000894043060   -0.1900
     18 F18        -2.7032    1.4229   47.1290 F       1  ZINC000894043060   -0.2000
     19 C19        -1.0329    2.5403   50.2365 C.ar    1  ZINC000894043060   -0.0600
     20 C20        -1.8243    3.6099   49.8613 C.ar    1  ZINC000894043060   -0.1200
     21 C21        -3.1869    3.4401   49.7040 C.ar    1  ZINC000894043060   -0.1200
     22 C22        -3.7589    2.1993   49.9222 C.ar    1  ZINC000894043060   -0.0400
     23 Cl23       -5.4702    1.9851   49.7244 Cl      1  ZINC000894043060   -0.0800
     24 C24        -2.9662    1.1293   50.2978 C.ar    1  ZINC000894043060   -0.1100
     25 C25        -1.6030    1.2990   50.4492 C.ar    1  ZINC000894043060   -0.0400
     26 C26        -0.6085    4.3075   55.7813 C.3     1  ZINC000894043060    0.2600
     27 F27         0.7850    4.3665   55.6726 F       1  ZINC000894043060   -0.2000
     28 F28        -1.0579    5.3556   56.5915 F       1  ZINC000894043060   -0.1900
     29 H29        -3.0292    3.3770   54.9417 H       1  ZINC000894043060    0.0600
     30 H30        -3.1237    5.1429   55.1440 H       1  ZINC000894043060    0.0800
     31 H31        -3.2029    4.4282   53.5158 H       1  ZINC000894043060    0.0800
     32 H32        -1.1860    2.4902   53.5365 H       1  ZINC000894043060    0.4000
     33 H33         1.9229    2.3810   51.9440 H       1  ZINC000894043060    0.1000
     34 H34         0.3948    1.4986   52.1770 H       1  ZINC000894043060    0.1000
     35 H35         0.7223    3.7514   50.1537 H       1  ZINC000894043060    0.1000
     36 H36         2.2502    2.0385   49.4398 H       1  ZINC000894043060    0.1000
     37 H37         1.1070    0.7448   49.8728 H       1  ZINC000894043060    0.1000
     38 H38        -0.0431   -0.0864   48.0854 H       1  ZINC000894043060    0.4000
     39 H39        -1.8779   -0.8854   46.5533 H       1  ZINC000894043060    0.0700
     40 H40        -1.5416   -0.5332   44.8412 H       1  ZINC000894043060    0.0800
     41 H41        -0.2956   -1.3029   45.8529 H       1  ZINC000894043060    0.0700
     42 H42        -1.3376    2.7974   46.4908 H       1  ZINC000894043060    0.1200
     43 H43        -1.3778    4.5785   49.6913 H       1  ZINC000894043060    0.1200
     44 H44        -3.8052    4.2758   49.4112 H       1  ZINC000894043060    0.1300
     45 H45        -3.4122    0.1606   50.4686 H       1  ZINC000894043060    0.1300
     46 H46        -0.9841    0.4638   50.7420 H       1  ZINC000894043060    0.1300
     47 H47        -0.8982    3.3551   56.2253 H       1  ZINC000894043060    0.1100
@<TRIPOS>BOND
     1     1     2    1
     2     1    29    1
     3     1    30    1
     4     1    31    1
     5     2     3    1
     6     2     4    1
     7     2    26    1
     8     4     5   am
     9     4    32    1
    10     5     6    2
    11     5     7    1
    12     7     8    1
    13     7    33    1
    14     7    34    1
    15     8     9    1
    16     8    19    1
    17     8    35    1
    18     9    10    1
    19     9    36    1
    20     9    37    1
    21    10    11    2
    22    10    12   am
    23    12    13    1
    24    12    38    1
    25    13    14    1
    26    13    15    1
    27    13    16    1
    28    15    39    1
    29    15    40    1
    30    15    41    1
    31    16    17    1
    32    16    18    1
    33    16    42    1
    34    19    25   ar
    35    19    20   ar
    36    20    21   ar
    37    20    43    1
    38    21    22   ar
    39    21    44    1
    40    22    23    1
    41    22    24   ar
    42    24    25   ar
    43    24    45    1
    44    25    46    1
    45    26    27    1
    46    26    28    1
    47    26    47    1
@<TRIPOS>SUBSTRUCTURE
     1 ZINC000894043060        1 TEMP              0 ****  ****    0 ROOT


##########                                Name:    ZINC000252489163
##########                DOCK_Rotatable_Bonds:                   6
##########                         Heavy_Atoms:                  25
##########                    Molecular_Weight:             379.403
##########                DOCK_Rotatable_Bonds:                   6
##########                       Formal_Charge:          0.00999963
##########                     HBond_Acceptors:                  10
##########                        HBond_Donors:                   2
##########                         Heavy_Atoms:                  25
##########                          Grid_Score:          -29.101368
##########                     Grid_vdw_energy:          -28.700247
##########                      Grid_es_energy:           -0.401121
##########           Internal_energy_repulsive:           11.753968

@<TRIPOS>MOLECULE
ZINC000252489163
 45 46 1 0 0
SMALL
USER_CHARGES


@<TRIPOS>ATOM
      1 C1         -7.7813    0.0483   64.6689 C.3     1  ZINC000252489163   -0.1100
      2 C2         -9.0850    0.0671   63.9130 C.ar    1  ZINC000252489163   -0.0600
      3 C3         -9.2286   -0.6896   62.7669 C.ar    1  ZINC000252489163   -0.1300
      4 C4        -10.4304   -0.6722   62.0711 C.ar    1  ZINC000252489163    0.1700
      5 N5        -10.5794   -1.4383   60.9095 N.am    1  ZINC000252489163   -0.6800
      6 C6        -10.1820   -0.9437   59.7203 C.2     1  ZINC000252489163    0.7100
      7 O7         -9.6941    0.1682   59.6569 O.2     1  ZINC000252489163   -0.5500
      8 N8        -10.3255   -1.6816   58.6017 N.am    1  ZINC000252489163   -0.6200
      9 C9         -9.8971   -1.1561   57.2982 C.3     1  ZINC000252489163    0.1000
     10 C10       -11.0700   -1.2535   56.3177 C.3     1  ZINC000252489163   -0.1400
     11 C11       -11.5776   -2.6967   56.2775 C.3     1  ZINC000252489163   -0.1300
     12 C12       -12.0743   -3.1035   57.6667 C.3     1  ZINC000252489163    0.1400
     13 H13       -12.8687   -2.4267   57.9816 H       1  ZINC000252489163    0.0900
     14 N14       -12.5896   -4.4741   57.6199 N.am    1  ZINC000252489163   -1.1100
     15 S15       -14.1765   -4.7494   57.2350 S.o2    1  ZINC000252489163    2.6100
     16 C16       -15.1122   -3.8703   58.5165 C.3     1  ZINC000252489163   -0.6700
     17 O17       -14.3455   -4.1186   55.9730 O.2     1  ZINC000252489163   -0.9500
     18 O18       -14.3333   -6.1545   57.3786 O.2     1  ZINC000252489163   -0.9500
     19 C19       -10.9075   -3.0292   58.6633 C.3     1  ZINC000252489163    0.1100
     20 C20       -11.4840    0.1066   62.5305 C.ar    1  ZINC000252489163   -0.1000
     21 C21       -11.3340    0.8615   63.6777 C.ar    1  ZINC000252489163   -0.1600
     22 C22       -12.4770    1.7071   64.1772 C.3     1  ZINC000252489163    0.5100
     23 F23       -12.1515    3.0605   64.0375 F       1  ZINC000252489163   -0.1700
     24 F24       -13.6267    1.4246   63.4316 F       1  ZINC000252489163   -0.1800
     25 F25       -12.7140    1.4213   65.5260 F       1  ZINC000252489163   -0.1800
     26 C26       -10.1380    0.8378   64.3711 C.ar    1  ZINC000252489163   -0.0900
     27 H27        -7.8035   -0.7491   65.4116 H       1  ZINC000252489163    0.0800
     28 H28        -6.9605   -0.1257   63.9732 H       1  ZINC000252489163    0.0700
     29 H29        -7.6372    1.0064   65.1685 H       1  ZINC000252489163    0.0700
     30 H30        -8.4072   -1.2942   62.4118 H       1  ZINC000252489163    0.1300
     31 H31       -10.9686   -2.3254   60.9601 H       1  ZINC000252489163    0.4100
     32 H32        -9.5961   -0.1140   57.4054 H       1  ZINC000252489163    0.0800
     33 H33        -9.0588   -1.7442   56.9248 H       1  ZINC000252489163    0.0800
     34 H34       -11.8738   -0.5942   56.6452 H       1  ZINC000252489163    0.0700
     35 H35       -10.7381   -0.9569   55.3227 H       1  ZINC000252489163    0.0900
     36 H36       -12.3963   -2.7740   55.5621 H       1  ZINC000252489163    0.0800
     37 H37       -10.7665   -3.3587   55.9737 H       1  ZINC000252489163    0.0800
     38 H38       -12.0011   -5.2203   57.8143 H       1  ZINC000252489163    0.4200
     39 H39       -14.8638   -2.8095   58.4844 H       1  ZINC000252489163    0.1300
     40 H40       -16.1800   -3.9990   58.3394 H       1  ZINC000252489163    0.1300
     41 H41       -14.8551   -4.2741   59.4957 H       1  ZINC000252489163    0.1300
     42 H42       -10.1538   -3.7711   58.3995 H       1  ZINC000252489163    0.0800
     43 H43       -11.2752   -3.2213   59.6713 H       1  ZINC000252489163    0.1100
     44 H44       -12.4197    0.1227   61.9915 H       1  ZINC000252489163    0.1800
     45 H45       -10.0234    1.4285   65.2679 H       1  ZINC000252489163    0.1300
@<TRIPOS>BOND
     1     1     2    1
     2     1    27    1
     3     1    28    1
     4     1    29    1
     5     2    26   ar
     6     2     3   ar
     7     3     4   ar
     8     3    30    1
     9     4     5    1
    10     4    20   ar
    11     5     6   am
    12     5    31    1
    13     6     7    2
    14     6     8   am
    15     8    19    1
    16     8     9    1
    17     9    10    1
    18     9    32    1
    19     9    33    1
    20    10    11    1
    21    10    34    1
    22    10    35    1
    23    11    12    1
    24    11    36    1
    25    11    37    1
    26    12    13    1
    27    12    14    1
    28    12    19    1
    29    14    15   am
    30    14    38    1
    31    15    16    1
    32    15    17    2
    33    15    18    2
    34    16    39    1
    35    16    40    1
    36    16    41    1
    37    19    42    1
    38    19    43    1
    39    20    21   ar
    40    20    44    1
    41    21    22    1
    42    21    26   ar
    43    22    23    1
    44    22    24    1
    45    22    25    1
    46    26    45    1
@<TRIPOS>SUBSTRUCTURE
     1 ZINC000252489163        1 TEMP              0 ****  ****    0 ROOT


##########                                Name:    ZINC000826052721
##########                DOCK_Rotatable_Bonds:                   3
##########                         Heavy_Atoms:                  29
##########                    Molecular_Weight:             393.399
##########                DOCK_Rotatable_Bonds:                   3
##########                       Formal_Charge:        -4.47035e-07
##########                     HBond_Acceptors:                   9
##########                        HBond_Donors:                   2
##########                         Heavy_Atoms:                  29
##########                          Grid_Score:          -29.101006
##########                     Grid_vdw_energy:          -28.076982
##########                      Grid_es_energy:           -1.024024
##########           Internal_energy_repulsive:           13.363605

@<TRIPOS>MOLECULE
ZINC000826052721
 46 50 1 0 0
SMALL
USER_CHARGES


@<TRIPOS>ATOM
      1 C1        -14.9299   -0.3139   55.5267 C.3     1  ZINC000826052721   -0.0400
      2 N2        -13.4651   -0.2549   55.4320 N.4     1  ZINC000826052721   -0.3800
      3 H3        -13.1448    0.6585   55.7169 H       1  ZINC000826052721    0.4300
      4 C4        -13.0523   -0.5101   54.0490 C.3     1  ZINC000826052721    0.0500
      5 C5        -11.5523   -0.6022   53.9525 C.ar    1  ZINC000826052721   -0.1300
      6 C6        -10.9574   -0.4494   52.7094 C.ar    1  ZINC000826052721   -0.1000
      7 C7         -9.5855   -0.5329   52.5776 C.ar    1  ZINC000826052721   -0.1000
      8 C8         -8.7997   -0.7699   53.6897 C.ar    1  ZINC000826052721   -0.0800
      9 C9         -9.3904   -0.9209   54.9288 C.ar    1  ZINC000826052721   -0.0800
     10 C10       -10.7672   -0.8361   55.0620 C.ar    1  ZINC000826052721   -0.1200
     11 C11       -11.3729   -1.0031   56.4322 C.3     1  ZINC000826052721    0.1100
     12 H12       -11.2209   -0.0909   57.0092 H       1  ZINC000826052721    0.1100
     13 N13       -10.7255   -2.1289   57.1185 N.3     1  ZINC000826052721   -0.6200
     14 C14       -10.9868   -2.0981   58.4758 C.ar    1  ZINC000826052721    0.1600
     15 C15       -11.9487   -2.9393   59.0458 C.ar    1  ZINC000826052721   -0.0400
     16 C16       -12.7087   -3.8833   58.2009 C.2     1  ZINC000826052721    0.0700
     17 N17       -13.9293   -4.3674   58.4424 N.2     1  ZINC000826052721   -0.3800
     18 N18       -14.2342   -5.1528   57.4665 N.2     1  ZINC000826052721   -0.1600
     19 N19       -13.2574   -5.1901   56.6296 N.2     1  ZINC000826052721   -0.1700
     20 N20       -12.3080   -4.4250   57.0482 N.pl3   1  ZINC000826052721   -0.3400
     21 C21       -12.1809   -2.8809   60.4275 C.ar    1  ZINC000826052721    0.1800
     22 N22       -11.5262   -2.0509   61.1998 N.ar    1  ZINC000826052721   -0.4700
     23 C23       -10.5967   -1.2160   60.7160 C.ar    1  ZINC000826052721    0.0900
     24 C24        -9.9093   -0.3329   61.5685 C.ar    1  ZINC000826052721    0.1700
     25 F25       -10.1809   -0.3195   62.8918 F       1  ZINC000826052721   -0.1100
     26 C26        -8.9673    0.5089   61.0549 C.ar    1  ZINC000826052721   -0.1900
     27 C27        -8.6725    0.5105   59.6928 C.ar    1  ZINC000826052721    0.1300
     28 F28        -7.7345    1.3564   59.2134 F       1  ZINC000826052721   -0.1300
     29 C29        -9.3211   -0.3326   58.8373 C.ar    1  ZINC000826052721   -0.1500
     30 C30       -10.2946   -1.2109   59.3334 C.ar    1  ZINC000826052721   -0.0600
     31 C31       -12.8715   -1.2796   56.3040 C.3     1  ZINC000826052721    0.0000
     32 H32       -15.2742   -1.3022   55.2220 H       1  ZINC000826052721    0.1200
     33 H33       -15.2354   -0.1239   56.5556 H       1  ZINC000826052721    0.1300
     34 H34       -15.3669    0.4407   54.8727 H       1  ZINC000826052721    0.1200
     35 H35       -13.4042    0.3022   53.4130 H       1  ZINC000826052721    0.1400
     36 H36       -13.4925   -1.4478   53.7097 H       1  ZINC000826052721    0.1400
     37 H37       -11.5703   -0.2639   51.8398 H       1  ZINC000826052721    0.1300
     38 H38        -9.1271   -0.4129   51.6071 H       1  ZINC000826052721    0.1300
     39 H39        -7.7264   -0.8366   53.5899 H       1  ZINC000826052721    0.1300
     40 H40        -8.7767   -1.1053   55.7981 H       1  ZINC000826052721    0.1400
     41 H41        -9.7322   -2.1373   56.9417 H       1  ZINC000826052721    0.4100
     42 H42       -12.9214   -3.5342   60.8648 H       1  ZINC000826052721    0.1800
     43 H43        -8.4421    1.1847   61.7136 H       1  ZINC000826052721    0.1600
     44 H44        -9.0855   -0.3229   57.7833 H       1  ZINC000826052721    0.1400
     45 H45       -13.0254   -2.2665   55.8676 H       1  ZINC000826052721    0.1400
     46 H46       -13.3373   -1.2353   57.2885 H       1  ZINC000826052721    0.1400
@<TRIPOS>BOND
     1     1     2    1
     2     1    32    1
     3     1    33    1
     4     1    34    1
     5     2     3    1
     6     2    31    1
     7     2     4    1
     8     4     5    1
     9     4    35    1
    10     4    36    1
    11     5    10   ar
    12     5     6   ar
    13     6     7   ar
    14     6    37    1
    15     7     8   ar
    16     7    38    1
    17     8     9   ar
    18     8    39    1
    19     9    10   ar
    20     9    40    1
    21    10    11    1
    22    11    12    1
    23    11    13    1
    24    11    31    1
    25    13    14    1
    26    13    41    1
    27    14    30   ar
    28    14    15   ar
    29    15    16    1
    30    15    21   ar
    31    16    20    1
    32    16    17    2
    33    17    18    1
    34    18    19    2
    35    19    20    1
    36    21    22   ar
    37    21    42    1
    38    22    23   ar
    39    23    30   ar
    40    23    24   ar
    41    24    25    1
    42    24    26   ar
    43    26    27   ar
    44    26    43    1
    45    27    28    1
    46    27    29   ar
    47    29    30   ar
    48    29    44    1
    49    31    45    1
    50    31    46    1
@<TRIPOS>SUBSTRUCTURE
     1 ZINC000826052721        1 TEMP              0 ****  ****    0 ROOT


##########                                Name:    ZINC000062882109
##########                DOCK_Rotatable_Bonds:                   8
##########                         Heavy_Atoms:                  31
##########                    Molecular_Weight:             424.497
##########                DOCK_Rotatable_Bonds:                   8
##########                       Formal_Charge:           0.0299993
##########                     HBond_Acceptors:                   7
##########                        HBond_Donors:                   1
##########                         Heavy_Atoms:                  31
##########                          Grid_Score:          -29.092134
##########                     Grid_vdw_energy:          -28.959520
##########                      Grid_es_energy:           -0.132613
##########           Internal_energy_repulsive:          192.162247

@<TRIPOS>MOLECULE
ZINC000062882109
 59 61 1 0 0
SMALL
USER_CHARGES


@<TRIPOS>ATOM
      1 C1        -10.4427    4.7316   52.2831 C.3     1  ZINC000062882109   -0.2000
      2 C2        -11.0829    3.3946   52.5544 C.2     1  ZINC000062882109    0.3900
      3 O3        -12.2651    3.3303   52.8156 O.2     1  ZINC000062882109   -0.4500
      4 C4        -10.2730    2.1667   52.5020 C.ar    1  ZINC000062882109   -0.1300
      5 C5        -10.8325    0.9401   52.8734 C.ar    1  ZINC000062882109   -0.1100
      6 C6        -10.0695   -0.2080   52.8227 C.ar    1  ZINC000062882109   -0.0900
      7 C7         -8.7523   -0.1509   52.4055 C.ar    1  ZINC000062882109   -0.1800
      8 C8         -8.1867    1.0623   52.0348 C.ar    1  ZINC000062882109    0.1200
      9 O9         -6.8914    1.1109   51.6259 O.3     1  ZINC000062882109   -0.2800
     10 C10        -6.4332    2.3439   51.0675 C.3     1  ZINC000062882109    0.0700
     11 H11        -6.7245    3.1681   51.7185 H       1  ZINC000062882109    0.1000
     12 C12        -7.0578    2.5408   49.6848 C.3     1  ZINC000062882109   -0.1800
     13 C13        -4.9319    2.3105   50.9404 C.2     1  ZINC000062882109    0.5200
     14 O14        -4.2851    1.5217   51.5964 O.2     1  ZINC000062882109   -0.4900
     15 N15        -4.3081    3.1573   50.0976 N.am    1  ZINC000062882109   -0.6600
     16 C16        -2.9124    3.1263   49.9793 C.ar    1  ZINC000062882109    0.1400
     17 C17        -2.1154    3.4968   51.0540 C.ar    1  ZINC000062882109   -0.1000
     18 C18        -0.7386    3.4692   50.9408 C.ar    1  ZINC000062882109   -0.1100
     19 C19        -0.1453    3.0713   49.7521 C.ar    1  ZINC000062882109    0.0800
     20 O20         1.2107    3.0568   49.6505 O.3     1  ZINC000062882109   -0.3100
     21 C21         1.7927    2.2532   48.6214 C.3     1  ZINC000062882109    0.0500
     22 C22         1.0904    2.5660   47.2925 C.3     1  ZINC000062882109    0.0400
     23 N23        -0.3448    2.2877   47.4712 N.am    1  ZINC000062882109   -0.5500
     24 C24        -1.0585    1.6625   46.5139 C.2     1  ZINC000062882109    0.5300
     25 O25        -2.2394    1.4439   46.6832 O.2     1  ZINC000062882109   -0.5100
     26 C26        -0.3890    1.2352   45.2332 C.3     1  ZINC000062882109   -0.0800
     27 C27        -1.4423    0.6997   44.2612 C.3     1  ZINC000062882109   -0.1300
     28 C28         0.3221    2.4351   44.6044 C.3     1  ZINC000062882109   -0.1600
     29 C29         0.6329    0.1368   45.5337 C.3     1  ZINC000062882109   -0.1500
     30 C30        -0.9445    2.6961   48.6750 C.ar    1  ZINC000062882109    0.1000
     31 C31        -2.3243    2.7198   48.7889 C.ar    1  ZINC000062882109   -0.1400
     32 C32        -8.9429    2.2207   52.0751 C.ar    1  ZINC000062882109   -0.0900
     33 H33       -11.1934    5.5174   52.3667 H       1  ZINC000062882109    0.0900
     34 H34        -9.6491    4.9084   53.0091 H       1  ZINC000062882109    0.1000
     35 H35       -10.0227    4.7359   51.2773 H       1  ZINC000062882109    0.1000
     36 H36       -11.8607    0.8918   53.2000 H       1  ZINC000062882109    0.1400
     37 H37       -10.5023   -1.1548   53.1101 H       1  ZINC000062882109    0.1300
     38 H38        -8.1606   -1.0536   52.3681 H       1  ZINC000062882109    0.1300
     39 H39        -8.1437    2.5649   49.7768 H       1  ZINC000062882109    0.0800
     40 H40        -6.7084    3.4814   49.2588 H       1  ZINC000062882109    0.0800
     41 H41        -6.7666    1.7166   49.0337 H       1  ZINC000062882109    0.0800
     42 H42        -4.8254    3.7881   49.5729 H       1  ZINC000062882109    0.4100
     43 H43        -2.5731    3.8077   51.9815 H       1  ZINC000062882109    0.1400
     44 H44        -0.1230    3.7587   51.7797 H       1  ZINC000062882109    0.1400
     45 H45         2.8549    2.4821   48.5360 H       1  ZINC000062882109    0.1300
     46 H46         1.6627    1.1985   48.8640 H       1  ZINC000062882109    0.0700
     47 H47         1.2346    3.6155   47.0359 H       1  ZINC000062882109    0.0900
     48 H48         1.4944    1.9325   46.5026 H       1  ZINC000062882109    0.1300
     49 H49        -2.1703    1.4822   44.0470 H       1  ZINC000062882109    0.0600
     50 H50        -0.9580    0.3907   43.3348 H       1  ZINC000062882109    0.0700
     51 H51        -1.9488   -0.1552   44.7091 H       1  ZINC000062882109    0.0700
     52 H52         1.0725    2.8166   45.2968 H       1  ZINC000062882109    0.0700
     53 H53         0.8063    2.1261   43.6781 H       1  ZINC000062882109    0.0800
     54 H54        -0.4059    3.2176   44.3903 H       1  ZINC000062882109    0.0600
     55 H55         0.1107   -0.7840   45.7934 H       1  ZINC000062882109    0.0700
     56 H56         1.2531   -0.0330   44.6536 H       1  ZINC000062882109    0.0800
     57 H57         1.2628    0.4451   46.3681 H       1  ZINC000062882109    0.0700
     58 H58        -2.9417    2.4270   47.9524 H       1  ZINC000062882109    0.1800
     59 H59        -8.5041    3.1645   51.7866 H       1  ZINC000062882109    0.1400
@<TRIPOS>BOND
     1     1     2    1
     2     1    33    1
     3     1    34    1
     4     1    35    1
     5     2     3    2
     6     2     4    1
     7     4    32   ar
     8     4     5   ar
     9     5     6   ar
    10     5    36    1
    11     6     7   ar
    12     6    37    1
    13     7     8   ar
    14     7    38    1
    15     8     9    1
    16     8    32   ar
    17     9    10    1
    18    10    11    1
    19    10    12    1
    20    10    13    1
    21    12    39    1
    22    12    40    1
    23    12    41    1
    24    13    14    2
    25    13    15   am
    26    15    16    1
    27    15    42    1
    28    16    31   ar
    29    16    17   ar
    30    17    18   ar
    31    17    43    1
    32    18    19   ar
    33    18    44    1
    34    19    30   ar
    35    19    20    1
    36    20    21    1
    37    21    22    1
    38    21    45    1
    39    21    46    1
    40    22    23    1
    41    22    47    1
    42    22    48    1
    43    23    24   am
    44    23    30    1
    45    24    25    2
    46    24    26    1
    47    26    27    1
    48    26    28    1
    49    26    29    1
    50    27    49    1
    51    27    50    1
    52    27    51    1
    53    28    52    1
    54    28    53    1
    55    28    54    1
    56    29    55    1
    57    29    56    1
    58    29    57    1
    59    30    31   ar
    60    31    58    1
    61    32    59    1
@<TRIPOS>SUBSTRUCTURE
     1 ZINC000062882109        1 TEMP              0 ****  ****    0 ROOT


##########                                Name:    ZINC000543429378
##########                DOCK_Rotatable_Bonds:                   6
##########                         Heavy_Atoms:                  29
##########                    Molecular_Weight:             406.408
##########                DOCK_Rotatable_Bonds:                   6
##########                       Formal_Charge:           0.0100003
##########                     HBond_Acceptors:                   9
##########                        HBond_Donors:                   1
##########                         Heavy_Atoms:                  29
##########                          Grid_Score:          -29.088024
##########                     Grid_vdw_energy:          -28.181854
##########                      Grid_es_energy:           -0.906170
##########           Internal_energy_repulsive:           46.156559

@<TRIPOS>MOLECULE
ZINC000543429378
 50 53 1 0 0
SMALL
USER_CHARGES


@<TRIPOS>ATOM
      1 O1         -2.5307    4.2409   50.3959 O.2     1  ZINC000543429378   -0.5100
      2 C2         -3.0645    3.5683   51.2525 C.2     1  ZINC000543429378    0.5200
      3 N3         -2.3140    2.9160   52.1623 N.am    1  ZINC000543429378   -0.6600
      4 C4         -0.9188    3.0102   52.1153 C.ar    1  ZINC000543429378    0.1900
      5 C5         -0.2379    2.6724   50.9529 C.ar    1  ZINC000543429378   -0.1600
      6 C6          1.1398    2.7659   50.9063 C.ar    1  ZINC000543429378   -0.0600
      7 C7          1.8436    3.1949   52.0152 C.ar    1  ZINC000543429378   -0.2100
      8 C8          1.1683    3.5338   53.1797 C.ar    1  ZINC000543429378    0.1300
      9 O9          1.8619    3.9556   54.2696 O.3     1  ZINC000543429378   -0.3100
     10 C10         3.2842    4.0217   54.1479 C.3     1  ZINC000543429378    0.6000
     11 F11         3.8351    4.4704   55.3531 F       1  ZINC000543429378   -0.1600
     12 F12         3.7863    2.7502   53.8504 F       1  ZINC000543429378   -0.1300
     13 F13         3.6236    4.9090   53.1211 F       1  ZINC000543429378   -0.1600
     14 C14        -0.2139    3.4468   53.2284 C.ar    1  ZINC000543429378   -0.1300
     15 C15        -4.5672    3.4669   51.3032 C.3     1  ZINC000543429378    0.0700
     16 H16        -5.0136    4.4178   51.0124 H       1  ZINC000543429378    0.1200
     17 C17        -5.0239    3.0842   52.7377 C.3     1  ZINC000543429378   -0.1200
     18 C18        -6.1924    2.1282   52.4524 C.3     1  ZINC000543429378   -0.1000
     19 H19        -7.0930    2.6796   52.1823 H       1  ZINC000543429378    0.0900
     20 C20        -6.4824    1.1144   53.5461 C.3     1  ZINC000543429378   -0.1100
     21 C21        -7.5858    0.1811   53.0228 C.3     1  ZINC000543429378   -0.1200
     22 C22        -7.1661   -0.5105   51.7291 C.3     1  ZINC000543429378   -0.1100
     23 C23        -6.7401    0.5102   50.6607 C.3     1  ZINC000543429378   -0.0900
     24 C24        -5.6229    1.3493   51.2357 C.3     1  ZINC000543429378    0.0700
     25 H25        -4.8288    0.6941   51.5937 H       1  ZINC000543429378    0.0900
     26 N26        -5.0332    2.3889   50.3922 N.3     1  ZINC000543429378   -0.4300
     27 C27        -3.9764    1.8874   49.6524 C.ar    1  ZINC000543429378    0.5000
     28 N28        -3.2825    0.8637   50.1278 N.ar    1  ZINC000543429378   -0.5300
     29 C29        -2.2671    0.3601   49.4458 C.ar    1  ZINC000543429378    0.1800
     30 C30        -1.9329    0.9166   48.2211 C.ar    1  ZINC000543429378   -0.2500
     31 C31        -2.6797    1.9865   47.7536 C.ar    1  ZINC000543429378    0.1800
     32 N32        -3.6861    2.4388   48.4832 N.ar    1  ZINC000543429378   -0.5300
     33 H33        -2.7412    2.3814   52.8497 H       1  ZINC000543429378    0.4200
     34 H34        -0.7856    2.3360   50.0850 H       1  ZINC000543429378    0.1400
     35 H35         1.6676    2.5026   50.0016 H       1  ZINC000543429378    0.1400
     36 H36         2.9205    3.2663   51.9761 H       1  ZINC000543429378    0.1400
     37 H37        -0.7410    3.7102   54.1335 H       1  ZINC000543429378    0.1500
     38 H38        -4.2262    2.5744   53.2778 H       1  ZINC000543429378    0.0800
     39 H39        -5.3642    3.9629   53.2859 H       1  ZINC000543429378    0.0900
     40 H40        -5.5833    0.5389   53.7662 H       1  ZINC000543429378    0.0700
     41 H41        -6.8254    1.6266   54.4451 H       1  ZINC000543429378    0.0700
     42 H42        -7.8002   -0.5753   53.7777 H       1  ZINC000543429378    0.0600
     43 H43        -8.4879    0.7644   52.8384 H       1  ZINC000543429378    0.0600
     44 H44        -6.3306   -1.1790   51.9370 H       1  ZINC000543429378    0.0600
     45 H45        -8.0037   -1.0957   51.3496 H       1  ZINC000543429378    0.0700
     46 H46        -6.3914   -0.0105   49.7688 H       1  ZINC000543429378    0.0700
     47 H47        -7.5813    1.1560   50.4087 H       1  ZINC000543429378    0.0700
     48 H48        -1.7050   -0.4742   49.8387 H       1  ZINC000543429378    0.1600
     49 H49        -1.1083    0.5251   47.6439 H       1  ZINC000543429378    0.1400
     50 H50        -2.4451    2.4430   46.8033 H       1  ZINC000543429378    0.1600
@<TRIPOS>BOND
     1     1     2    2
     2     2     3   am
     3     2    15    1
     4     3     4    1
     5     3    33    1
     6     4    14   ar
     7     4     5   ar
     8     5     6   ar
     9     5    34    1
    10     6     7   ar
    11     6    35    1
    12     7     8   ar
    13     7    36    1
    14     8     9    1
    15     8    14   ar
    16     9    10    1
    17    10    11    1
    18    10    12    1
    19    10    13    1
    20    14    37    1
    21    15    16    1
    22    15    26    1
    23    15    17    1
    24    17    18    1
    25    17    38    1
    26    17    39    1
    27    18    19    1
    28    18    24    1
    29    18    20    1
    30    20    21    1
    31    20    40    1
    32    20    41    1
    33    21    22    1
    34    21    42    1
    35    21    43    1
    36    22    23    1
    37    22    44    1
    38    22    45    1
    39    23    24    1
    40    23    46    1
    41    23    47    1
    42    24    25    1
    43    24    26    1
    44    26    27    1
    45    27    32   ar
    46    27    28   ar
    47    28    29   ar
    48    29    30   ar
    49    29    48    1
    50    30    31   ar
    51    30    49    1
    52    31    32   ar
    53    31    50    1
@<TRIPOS>SUBSTRUCTURE
     1 ZINC000543429378        1 TEMP              0 ****  ****    0 ROOT


##########                                Name:    ZINC000550011575
##########                DOCK_Rotatable_Bonds:                   6
##########                         Heavy_Atoms:                  28
##########                    Molecular_Weight:             423.935
##########                DOCK_Rotatable_Bonds:                   6
##########                       Formal_Charge:          -0.0100002
##########                     HBond_Acceptors:                   7
##########                        HBond_Donors:                   0
##########                         Heavy_Atoms:                  28
##########                          Grid_Score:          -29.075974
##########                     Grid_vdw_energy:          -27.741705
##########                      Grid_es_energy:           -1.334269
##########           Internal_energy_repulsive:           34.670288

@<TRIPOS>MOLECULE
ZINC000550011575
 51 53 1 0 0
SMALL
USER_CHARGES


@<TRIPOS>ATOM
      1 C1         -8.2487   -0.8466   60.3283 C.3     1  ZINC000550011575   -0.1400
      2 C2         -9.6780   -0.5308   60.7734 C.3     1  ZINC000550011575   -0.6100
      3 H3        -10.0541   -1.3454   61.3924 H       1  ZINC000550011575    0.1500
      4 C4         -9.6852    0.7492   61.5688 C.2     1  ZINC000550011575    0.5400
      5 O5        -10.0606    1.7811   61.0538 O.2     1  ZINC000550011575   -0.5100
      6 N6         -9.2744    0.7472   62.8524 N.am    1  ZINC000550011575   -0.6000
      7 C7         -8.8193   -0.4989   63.4740 C.3     1  ZINC000550011575    0.0600
      8 C8         -9.2832    1.9912   63.6262 C.3     1  ZINC000550011575    0.1500
      9 C9        -10.1915    1.8350   64.8185 C.ar    1  ZINC000550011575   -0.1500
     10 C10        -9.6593    1.5286   66.0590 C.ar    1  ZINC000550011575    0.1400
     11 F11        -8.3253    1.3693   66.2015 F       1  ZINC000550011575   -0.1100
     12 C12       -10.4950    1.3859   67.1540 C.ar    1  ZINC000550011575   -0.1500
     13 C13       -11.8594    1.5493   67.0079 C.ar    1  ZINC000550011575   -0.0700
     14 C14       -12.3909    1.8554   65.7689 C.ar    1  ZINC000550011575   -0.1300
     15 C15       -11.5571    2.0035   64.6750 C.ar    1  ZINC000550011575    0.0000
     16 Cl16      -12.2255    2.3885   63.1198 Cl      1  ZINC000550011575   -0.0500
     17 S17       -10.7381   -0.3415   59.3136 S.o2    1  ZINC000550011575    2.4500
     18 O18       -12.0279    0.0740   59.7415 O.2     1  ZINC000550011575   -0.9200
     19 O19       -10.0439    0.4357   58.3476 O.2     1  ZINC000550011575   -0.9100
     20 C20       -10.8516   -2.0480   58.7091 C.3     1  ZINC000550011575   -0.5300
     21 H21       -10.0267   -2.6303   59.1196 H       1  ZINC000550011575    0.1500
     22 C22       -10.7594   -2.0496   57.1846 C.3     1  ZINC000550011575   -0.1100
     23 C23       -11.0732   -3.4635   56.6819 C.3     1  ZINC000550011575   -0.1100
     24 C24       -12.5574   -3.7395   56.9145 C.3     1  ZINC000550011575   -0.0900
     25 C25       -12.9356   -3.4333   58.3400 C.ar    1  ZINC000550011575   -0.0600
     26 C26       -14.1203   -3.9719   58.8245 C.ar    1  ZINC000550011575   -0.1200
     27 C27       -14.5250   -3.7238   60.1201 C.ar    1  ZINC000550011575   -0.1100
     28 C28       -13.7460   -2.9321   60.9428 C.ar    1  ZINC000550011575   -0.1100
     29 C29       -12.5673   -2.3980   60.4640 C.ar    1  ZINC000550011575   -0.1500
     30 C30       -12.1568   -2.6492   59.1608 C.ar    1  ZINC000550011575   -0.0800
     31 H31        -8.2150   -1.8474   59.8975 H       1  ZINC000550011575    0.0900
     32 H32        -7.9316   -0.1188   59.5814 H       1  ZINC000550011575    0.0900
     33 H33        -7.5812   -0.7987   61.1886 H       1  ZINC000550011575    0.0800
     34 H34        -7.7459   -0.6102   63.3211 H       1  ZINC000550011575    0.0700
     35 H35        -9.0332   -0.4711   64.5424 H       1  ZINC000550011575    0.0800
     36 H36        -9.3403   -1.3423   63.0209 H       1  ZINC000550011575    0.0700
     37 H37        -8.2720    2.2144   63.9666 H       1  ZINC000550011575    0.1000
     38 H38        -9.6437    2.8066   62.9991 H       1  ZINC000550011575    0.1100
     39 H39       -10.0805    1.1464   68.1221 H       1  ZINC000550011575    0.1500
     40 H40       -12.5108    1.4376   67.8620 H       1  ZINC000550011575    0.1500
     41 H41       -13.4574    1.9826   65.6557 H       1  ZINC000550011575    0.1400
     42 H42       -11.4817   -1.3448   56.7725 H       1  ZINC000550011575    0.0800
     43 H43        -9.7528   -1.7658   56.8775 H       1  ZINC000550011575    0.0900
     44 H44       -10.8494   -3.5328   55.6173 H       1  ZINC000550011575    0.0800
     45 H45       -10.4743   -4.1898   57.2314 H       1  ZINC000550011575    0.0700
     46 H46       -13.1483   -3.1157   56.2439 H       1  ZINC000550011575    0.0800
     47 H47       -12.7650   -4.7887   56.7049 H       1  ZINC000550011575    0.0800
     48 H48       -14.7299   -4.5898   58.1820 H       1  ZINC000550011575    0.1300
     49 H49       -15.4476   -4.1464   60.4899 H       1  ZINC000550011575    0.1300
     50 H50       -14.0590   -2.7319   61.9570 H       1  ZINC000550011575    0.1300
     51 H51       -11.9596   -1.7790   61.1072 H       1  ZINC000550011575    0.1700
@<TRIPOS>BOND
     1     1     2    1
     2     1    31    1
     3     1    32    1
     4     1    33    1
     5     2     3    1
     6     2     4    1
     7     2    17    1
     8     4     5    2
     9     4     6   am
    10     6     7    1
    11     6     8    1
    12     7    34    1
    13     7    35    1
    14     7    36    1
    15     8     9    1
    16     8    37    1
    17     8    38    1
    18     9    15   ar
    19     9    10   ar
    20    10    11    1
    21    10    12   ar
    22    12    13   ar
    23    12    39    1
    24    13    14   ar
    25    13    40    1
    26    14    15   ar
    27    14    41    1
    28    15    16    1
    29    17    18    2
    30    17    19    2
    31    17    20    1
    32    20    21    1
    33    20    30    1
    34    20    22    1
    35    22    23    1
    36    22    42    1
    37    22    43    1
    38    23    24    1
    39    23    44    1
    40    23    45    1
    41    24    25    1
    42    24    46    1
    43    24    47    1
    44    25    30   ar
    45    25    26   ar
    46    26    27   ar
    47    26    48    1
    48    27    28   ar
    49    27    49    1
    50    28    29   ar
    51    28    50    1
    52    29    30   ar
    53    29    51    1
@<TRIPOS>SUBSTRUCTURE
     1 ZINC000550011575        1 TEMP              0 ****  ****    0 ROOT


##########                                Name:    ZINC000885154703
##########                DOCK_Rotatable_Bonds:                   5
##########                         Heavy_Atoms:                  24
##########                    Molecular_Weight:             396.259
##########                DOCK_Rotatable_Bonds:                   5
##########                       Formal_Charge:          -0.0099998
##########                     HBond_Acceptors:                   6
##########                        HBond_Donors:                   1
##########                         Heavy_Atoms:                  24
##########                          Grid_Score:          -29.049269
##########                     Grid_vdw_energy:          -28.649614
##########                      Grid_es_energy:           -0.399655
##########           Internal_energy_repulsive:            8.548475

@<TRIPOS>MOLECULE
ZINC000885154703
 43 45 1 0 0
SMALL
USER_CHARGES


@<TRIPOS>ATOM
      1 C1         -5.0191    1.9633   50.6491 C.3     1  ZINC000885154703   -0.1500
      2 C2         -5.6851    0.6124   50.3798 C.3     1  ZINC000885154703   -0.0300
      3 C3         -6.5331    0.2254   51.5639 C.2     1  ZINC000885154703    0.1700
      4 N4         -6.7526   -0.9821   51.9908 N.2     1  ZINC000885154703   -0.3800
      5 O5         -7.4763   -0.9582   52.9641 O.3     1  ZINC000885154703    0.0800
      6 C6         -7.7968    0.3051   53.2593 C.2     1  ZINC000885154703    0.1800
      7 C7         -8.6751    0.7665   54.3936 C.3     1  ZINC000885154703    0.0000
      8 H8         -9.1266    1.7279   54.1486 H       1  ZINC000885154703    0.1300
      9 C9         -7.8458    0.8869   55.6888 C.3     1  ZINC000885154703   -0.1200
     10 C10        -8.8105    0.4107   56.8032 C.3     1  ZINC000885154703   -0.1300
     11 C11        -9.5706   -0.7545   56.1224 C.3     1  ZINC000885154703    0.1400
     12 H12        -8.9722   -1.6652   56.1453 H       1  ZINC000885154703    0.1000
     13 N13       -10.8629   -0.9749   56.7761 N.am    1  ZINC000885154703   -0.7100
     14 C14       -11.4438   -2.1901   56.7281 C.2     1  ZINC000885154703    0.5700
     15 O15       -10.8961   -3.1030   56.1412 O.2     1  ZINC000885154703   -0.5100
     16 C16       -12.7459   -2.4127   57.3888 C.ar    1  ZINC000885154703   -0.1600
     17 C17       -13.9149   -2.4980   56.6265 C.ar    1  ZINC000885154703    0.1500
     18 F18       -13.8576   -2.3770   55.2821 F       1  ZINC000885154703   -0.1200
     19 C19       -15.1303   -2.7072   57.2529 C.ar    1  ZINC000885154703   -0.1500
     20 C20       -15.1898   -2.8310   58.6280 C.ar    1  ZINC000885154703   -0.0400
     21 C21       -14.0348   -2.7473   59.3885 C.ar    1  ZINC000885154703   -0.1100
     22 Br22      -14.1302   -2.9184   61.2693 Br      1  ZINC000885154703   -0.0300
     23 C23       -12.8149   -2.5448   58.7774 C.ar    1  ZINC000885154703    0.0100
     24 C24       -11.5603   -2.4547   59.6074 C.3     1  ZINC000885154703   -0.1300
     25 C25        -9.7725   -0.2766   54.6684 C.3     1  ZINC000885154703   -0.1300
     26 N26        -7.1969    1.0668   52.3764 N.2     1  ZINC000885154703   -0.4800
     27 H27        -5.7862    2.7210   50.8098 H       1  ZINC000885154703    0.0600
     28 H28        -4.3911    1.8882   51.5368 H       1  ZINC000885154703    0.0600
     29 H29        -4.4057    2.2432   49.7927 H       1  ZINC000885154703    0.0700
     30 H30        -6.3131    0.6876   49.4921 H       1  ZINC000885154703    0.1000
     31 H31        -4.9180   -0.1452   50.2191 H       1  ZINC000885154703    0.0900
     32 H32        -6.9689    0.2412   55.6418 H       1  ZINC000885154703    0.0800
     33 H33        -7.5497    1.9223   55.8573 H       1  ZINC000885154703    0.0900
     34 H34        -8.2537    0.0547   57.6699 H       1  ZINC000885154703    0.0800
     35 H35        -9.4981    1.2079   57.0854 H       1  ZINC000885154703    0.0800
     36 H36       -11.3006   -0.2462   57.2434 H       1  ZINC000885154703    0.4000
     37 H37       -16.0347   -2.7735   56.6662 H       1  ZINC000885154703    0.1500
     38 H38       -16.1413   -2.9935   59.1121 H       1  ZINC000885154703    0.1500
     39 H39       -11.1304   -3.4495   59.7252 H       1  ZINC000885154703    0.0900
     40 H40       -10.8410   -1.8046   59.1094 H       1  ZINC000885154703    0.0800
     41 H41       -11.8022   -2.0451   60.5881 H       1  ZINC000885154703    0.0900
     42 H42       -10.7570    0.1780   54.5582 H       1  ZINC000885154703    0.0900
     43 H43        -9.6695   -1.1166   53.9816 H       1  ZINC000885154703    0.0800
@<TRIPOS>BOND
     1     1     2    1
     2     1    27    1
     3     1    28    1
     4     1    29    1
     5     2     3    1
     6     2    30    1
     7     2    31    1
     8     3    26    1
     9     3     4    2
    10     4     5    1
    11     5     6    1
    12     6     7    1
    13     6    26    2
    14     7     8    1
    15     7    25    1
    16     7     9    1
    17     9    10    1
    18     9    32    1
    19     9    33    1
    20    10    11    1
    21    10    34    1
    22    10    35    1
    23    11    12    1
    24    11    13    1
    25    11    25    1
    26    13    14   am
    27    13    36    1
    28    14    15    2
    29    14    16    1
    30    16    23   ar
    31    16    17   ar
    32    17    18    1
    33    17    19   ar
    34    19    20   ar
    35    19    37    1
    36    20    21   ar
    37    20    38    1
    38    21    22    1
    39    21    23   ar
    40    23    24    1
    41    24    39    1
    42    24    40    1
    43    24    41    1
    44    25    42    1
    45    25    43    1
@<TRIPOS>SUBSTRUCTURE
     1 ZINC000885154703        1 TEMP              0 ****  ****    0 ROOT


##########                                Name:    ZINC000867639366
##########                DOCK_Rotatable_Bonds:                   6
##########                         Heavy_Atoms:                  25
##########                    Molecular_Weight:             388.509
##########                DOCK_Rotatable_Bonds:                   6
##########                       Formal_Charge:          0.00999961
##########                     HBond_Acceptors:                   9
##########                        HBond_Donors:                   1
##########                         Heavy_Atoms:                  25
##########                          Grid_Score:          -29.011890
##########                     Grid_vdw_energy:          -26.810200
##########                      Grid_es_energy:           -2.201690
##########           Internal_energy_repulsive:           39.487476

@<TRIPOS>MOLECULE
ZINC000867639366
 49 51 1 0 0
SMALL
USER_CHARGES


@<TRIPOS>ATOM
      1 C1        -11.0775    0.0028   55.6651 C.3     1  ZINC000867639366    0.0300
      2 O2        -10.7434    0.0106   57.0544 O.3     1  ZINC000867639366   -0.3800
      3 C3         -9.7037   -0.9041   57.4074 C.3     1  ZINC000867639366    0.0800
      4 H4         -9.0051   -0.9991   56.5760 H       1  ZINC000867639366    0.0800
      5 C5        -10.3123   -2.2725   57.7222 C.3     1  ZINC000867639366   -0.1400
      6 C6        -11.3183   -2.1341   58.8671 C.3     1  ZINC000867639366   -0.1200
      7 C7        -10.5949   -1.6272   60.1187 C.3     1  ZINC000867639366    0.1500
      8 H8         -9.8789   -2.3768   60.4556 H       1  ZINC000867639366    0.0800
      9 C9        -11.6148   -1.3576   61.2268 C.3     1  ZINC000867639366   -0.1900
     10 N10        -9.8862   -0.3843   59.7845 N.am    1  ZINC000867639366   -0.9800
     11 S11       -10.1243    0.9891   60.6785 S.o2    1  ZINC000867639366    2.6900
     12 O12        -9.1924    1.9478   60.1972 O.2     1  ZINC000867639366   -0.9500
     13 O13       -11.5272    1.2135   60.7036 O.2     1  ZINC000867639366   -0.9400
     14 C14        -9.6495    0.6220   62.3352 C.ar    1  ZINC000867639366   -0.6300
     15 C15       -10.3262    1.2009   63.3925 C.ar    1  ZINC000867639366   -0.0500
     16 C16        -9.9537    0.9129   64.6922 C.ar    1  ZINC000867639366   -0.0400
     17 C17        -8.9050    0.0456   64.9346 C.ar    1  ZINC000867639366   -0.6300
     18 S18        -8.4298   -0.3211   66.5912 S.o2    1  ZINC000867639366    2.7000
     19 O19        -9.1967    0.5344   67.4274 O.2     1  ZINC000867639366   -0.9400
     20 O20        -8.4421   -1.7373   66.7080 O.2     1  ZINC000867639366   -0.9500
     21 N21        -6.8512    0.1487   66.7638 N.am    1  ZINC000867639366   -1.0800
     22 C22        -6.4764    1.5490   66.5524 C.3     1  ZINC000867639366    0.0800
     23 C23        -6.7074    2.5244   67.7084 C.3     1  ZINC000867639366   -0.1800
     24 C24        -5.2857    2.0893   67.3469 C.3     1  ZINC000867639366   -0.1900
     25 C25        -8.2292   -0.5344   63.8773 C.ar    1  ZINC000867639366   -0.0400
     26 C26        -8.6042   -0.2493   62.5776 C.ar    1  ZINC000867639366   -0.0400
     27 C27        -8.9615   -0.3829   58.6419 C.3     1  ZINC000867639366    0.1200
     28 H28       -10.1992    0.2725   55.0787 H       1  ZINC000867639366    0.0400
     29 H29       -11.4143   -0.9933   55.3779 H       1  ZINC000867639366    0.0400
     30 H30       -11.8739    0.7234   55.4789 H       1  ZINC000867639366    0.0900
     31 H31       -10.8198   -2.6564   56.8372 H       1  ZINC000867639366    0.0700
     32 H32        -9.5214   -2.9629   58.0151 H       1  ZINC000867639366    0.0700
     33 H33       -12.0962   -1.4249   58.5842 H       1  ZINC000867639366    0.0800
     34 H34       -11.7686   -3.1047   59.0752 H       1  ZINC000867639366    0.0800
     35 H35       -12.0460   -2.3012   61.5613 H       1  ZINC000867639366    0.0700
     36 H36       -11.1197   -0.8671   62.0648 H       1  ZINC000867639366    0.0600
     37 H37       -12.4055   -0.7124   60.8438 H       1  ZINC000867639366    0.1000
     38 H38       -11.1456    1.8786   63.2032 H       1  ZINC000867639366    0.1600
     39 H39       -10.4819    1.3658   65.5183 H       1  ZINC000867639366    0.1500
     40 H40        -6.1747   -0.5034   67.0049 H       1  ZINC000867639366    0.4200
     41 H41        -6.6183    1.9259   65.5395 H       1  ZINC000867639366    0.1400
     42 H42        -7.0015    3.5432   67.4562 H       1  ZINC000867639366    0.1100
     43 H43        -7.1381    2.1240   68.6262 H       1  ZINC000867639366    0.1000
     44 H44        -4.7813    1.4029   68.0269 H       1  ZINC000867639366    0.1000
     45 H45        -4.6445    2.8219   66.8569 H       1  ZINC000867639366    0.1000
     46 H46        -7.4101   -1.2122   64.0667 H       1  ZINC000867639366    0.1500
     47 H47        -8.0762   -0.7024   61.7516 H       1  ZINC000867639366    0.1500
     48 H48        -8.1122   -1.0310   58.8584 H       1  ZINC000867639366    0.0900
     49 H49        -8.6110    0.6324   58.4567 H       1  ZINC000867639366    0.1000
@<TRIPOS>BOND
     1     1     2    1
     2     1    28    1
     3     1    29    1
     4     1    30    1
     5     2     3    1
     6     3     4    1
     7     3    27    1
     8     3     5    1
     9     5     6    1
    10     5    31    1
    11     5    32    1
    12     6     7    1
    13     6    33    1
    14     6    34    1
    15     7     8    1
    16     7     9    1
    17     7    10    1
    18     9    35    1
    19     9    36    1
    20     9    37    1
    21    10    11   am
    22    10    27    1
    23    11    12    2
    24    11    13    2
    25    11    14    1
    26    14    26   ar
    27    14    15   ar
    28    15    16   ar
    29    15    38    1
    30    16    17   ar
    31    16    39    1
    32    17    18    1
    33    17    25   ar
    34    18    19    2
    35    18    20    2
    36    18    21   am
    37    21    22    1
    38    21    40    1
    39    22    24    1
    40    22    23    1
    41    22    41    1
    42    23    24    1
    43    23    42    1
    44    23    43    1
    45    24    44    1
    46    24    45    1
    47    25    26   ar
    48    25    46    1
    49    26    47    1
    50    27    48    1
    51    27    49    1
@<TRIPOS>SUBSTRUCTURE
     1 ZINC000867639366        1 TEMP              0 ****  ****    0 ROOT


##########                                Name:    ZINC000469459940
##########                DOCK_Rotatable_Bonds:                   7
##########                         Heavy_Atoms:                  24
##########                    Molecular_Weight:             414.295
##########                DOCK_Rotatable_Bonds:                   7
##########                       Formal_Charge:          -0.0200002
##########                     HBond_Acceptors:                   6
##########                        HBond_Donors:                   1
##########                         Heavy_Atoms:                  24
##########                          Grid_Score:          -28.997238
##########                     Grid_vdw_energy:          -28.945269
##########                      Grid_es_energy:           -0.051969
##########           Internal_energy_repulsive:           10.015556

@<TRIPOS>MOLECULE
ZINC000469459940
 41 42 1 0 0
SMALL
USER_CHARGES


@<TRIPOS>ATOM
      1 C1         -3.9458    2.3473   48.9763 C.3     1  ZINC000469459940   -0.1600
      2 C2         -4.8532    3.4256   49.5719 C.3     1  ZINC000469459940   -0.1200
      3 C3         -6.3107    2.9672   49.4915 C.3     1  ZINC000469459940   -0.1200
      4 C4         -6.8394    2.6983   50.9018 C.3     1  ZINC000469459940   -0.6000
      5 S5         -6.0685    1.1940   51.5599 S.o2    1  ZINC000469459940    2.4900
      6 O6         -6.0104    0.1853   50.5607 O.2     1  ZINC000469459940   -0.9300
      7 O7         -4.9260    1.5192   52.3397 O.2     1  ZINC000469459940   -0.9300
      8 C8         -7.2330    0.5792   52.7308 C.ar    1  ZINC000469459940   -0.6400
      9 C9         -8.2551   -0.2545   52.3129 C.ar    1  ZINC000469459940   -0.0300
     10 C10        -9.1704   -0.7389   53.2243 C.ar    1  ZINC000469459940   -0.0800
     11 C11        -9.0634   -0.3865   54.5708 C.ar    1  ZINC000469459940   -0.0900
     12 C12       -10.0402   -0.9023   55.5531 C.2     1  ZINC000469459940    0.5600
     13 O13        -9.9318   -0.6110   56.7283 O.2     1  ZINC000469459940   -0.5000
     14 N14       -11.0507   -1.6955   55.1457 N.am    1  ZINC000469459940   -0.6700
     15 C15       -11.9751   -2.1835   56.0753 C.ar    1  ZINC000469459940    0.1900
     16 C16       -11.7565   -3.4058   56.6972 C.ar    1  ZINC000469459940   -0.1500
     17 C17       -12.6702   -3.8866   57.6150 C.ar    1  ZINC000469459940   -0.0400
     18 C18       -13.8031   -3.1523   57.9154 C.ar    1  ZINC000469459940   -0.1500
     19 Br19      -15.0513   -3.8141   59.1724 Br      1  ZINC000469459940   -0.0200
     20 C20       -14.0247   -1.9320   57.2968 C.ar    1  ZINC000469459940    0.1500
     21 F21       -15.1321   -1.2165   57.5917 F       1  ZINC000469459940   -0.1200
     22 C22       -13.1097   -1.4438   56.3818 C.ar    1  ZINC000469459940   -0.1500
     23 C23        -8.0295    0.4546   54.9857 C.ar    1  ZINC000469459940   -0.1100
     24 C24        -7.1179    0.9279   54.0648 C.ar    1  ZINC000469459940   -0.0300
     25 H25        -4.0667    1.4203   49.5370 H       1  ZINC000469459940    0.0600
     26 H26        -4.2169    2.1794   47.9340 H       1  ZINC000469459940    0.0600
     27 H27        -2.9074    2.6738   49.0336 H       1  ZINC000469459940    0.0600
     28 H28        -4.5821    3.5935   50.6142 H       1  ZINC000469459940    0.0700
     29 H29        -4.7323    4.3524   49.0113 H       1  ZINC000469459940    0.0700
     30 H30        -6.9110    3.7458   49.0207 H       1  ZINC000469459940    0.0800
     31 H31        -6.3722    2.0537   48.9000 H       1  ZINC000469459940    0.0800
     32 H32        -6.5979    3.5426   51.5475 H       1  ZINC000469459940    0.1400
     33 H33        -7.9207    2.5663   50.8654 H       1  ZINC000469459940    0.1400
     34 H34        -8.3367   -0.5264   51.2709 H       1  ZINC000469459940    0.1500
     35 H35        -9.9681   -1.3890   52.8968 H       1  ZINC000469459940    0.1500
     36 H36       -11.1371   -1.9280   54.2080 H       1  ZINC000469459940    0.4200
     37 H37       -10.8727   -3.9806   56.4632 H       1  ZINC000469459940    0.1500
     38 H38       -12.4999   -4.8372   58.0985 H       1  ZINC000469459940    0.1500
     39 H39       -13.2818   -0.4929   55.8996 H       1  ZINC000469459940    0.1600
     40 H40        -7.9413    0.7313   56.0259 H       1  ZINC000469459940    0.1400
     41 H41        -6.3175    1.5788   54.3844 H       1  ZINC000469459940    0.1500
@<TRIPOS>BOND
     1     1     2    1
     2     1    25    1
     3     1    26    1
     4     1    27    1
     5     2     3    1
     6     2    28    1
     7     2    29    1
     8     3     4    1
     9     3    30    1
    10     3    31    1
    11     4     5    1
    12     4    32    1
    13     4    33    1
    14     5     6    2
    15     5     7    2
    16     5     8    1
    17     8    24   ar
    18     8     9   ar
    19     9    10   ar
    20     9    34    1
    21    10    11   ar
    22    10    35    1
    23    11    12    1
    24    11    23   ar
    25    12    13    2
    26    12    14   am
    27    14    15    1
    28    14    36    1
    29    15    22   ar
    30    15    16   ar
    31    16    17   ar
    32    16    37    1
    33    17    18   ar
    34    17    38    1
    35    18    19    1
    36    18    20   ar
    37    20    21    1
    38    20    22   ar
    39    22    39    1
    40    23    24   ar
    41    23    40    1
    42    24    41    1
@<TRIPOS>SUBSTRUCTURE
     1 ZINC000469459940        1 TEMP              0 ****  ****    0 ROOT


##########                                Name:    ZINC001085817863
##########                DOCK_Rotatable_Bonds:                   7
##########                         Heavy_Atoms:                  24
##########                    Molecular_Weight:             326.442
##########                DOCK_Rotatable_Bonds:                   7
##########                       Formal_Charge:           0.0299998
##########                     HBond_Acceptors:                   5
##########                        HBond_Donors:                   0
##########                         Heavy_Atoms:                  24
##########                          Grid_Score:          -28.989105
##########                     Grid_vdw_energy:          -27.457869
##########                      Grid_es_energy:           -1.531236
##########           Internal_energy_repulsive:           15.858797

@<TRIPOS>MOLECULE
ZINC001085817863
 50 52 1 0 0
SMALL
USER_CHARGES


@<TRIPOS>ATOM
      1 C1          3.0230    1.8741   51.2885 C.3     1  ZINC001085817863   -0.1400
      2 C2          1.6216    1.4087   51.6887 C.3     1  ZINC001085817863   -0.0700
      3 C3          0.6676    2.5736   51.6236 C.2     1  ZINC001085817863    0.1100
      4 C4         -0.0708    2.9429   50.5333 C.2     1  ZINC001085817863   -0.2400
      5 C5         -0.0890    2.2891   49.2139 C.2     1  ZINC001085817863    0.6000
      6 O6          0.7500    2.5759   48.3814 O.2     1  ZINC001085817863   -0.5300
      7 N7         -1.0354    1.3728   48.9289 N.am    1  ZINC001085817863   -0.6100
      8 C8         -1.0535    0.7223   47.6164 C.3     1  ZINC001085817863    0.0800
      9 C9         -2.0460    1.0272   49.9316 C.3     1  ZINC001085817863    0.1300
     10 C10        -3.2017    2.0270   49.8566 C.3     1  ZINC001085817863    0.0100
     11 H11        -2.9635    2.9824   50.3242 H       1  ZINC001085817863    0.0800
     12 C12        -3.7990    2.1669   48.4494 C.3     1  ZINC001085817863   -0.1400
     13 C13        -5.1310    2.2386   49.2092 C.3     1  ZINC001085817863    0.0000
     14 N14        -4.4937    1.4653   50.2929 N.3     1  ZINC001085817863   -0.4400
     15 C15        -4.8792    1.9888   51.6102 C.3     1  ZINC001085817863    0.0700
     16 C16        -5.9586    1.1186   52.2004 C.ar    1  ZINC001085817863   -0.1300
     17 C17        -6.1666    1.0903   53.5708 C.ar    1  ZINC001085817863   -0.0700
     18 C18        -7.1716    0.2751   54.0691 C.ar    1  ZINC001085817863   -0.1700
     19 C19        -7.9271   -0.4767   53.1896 C.ar    1  ZINC001085817863    0.1000
     20 N20        -7.7011   -0.4249   51.8913 N.ar    1  ZINC001085817863   -0.4800
     21 C21        -6.7578    0.3427   51.3817 C.ar    1  ZINC001085817863    0.1200
     22 C22        -0.8416    4.1214   50.9439 C.2     1  ZINC001085817863   -0.1900
     23 C23        -0.5111    4.3620   52.2251 C.2     1  ZINC001085817863   -0.0200
     24 N24         0.3932    3.4242   52.6308 N.pl3   1  ZINC001085817863   -0.4400
     25 C25         0.9882    3.3582   53.9678 C.3     1  ZINC001085817863    0.0600
     26 H26         3.7130    1.0317   51.3357 H       1  ZINC001085817863    0.0600
     27 H27         2.9989    2.2676   50.2723 H       1  ZINC001085817863    0.0500
     28 H28         3.3557    2.6550   51.9725 H       1  ZINC001085817863    0.0600
     29 H29         1.2889    0.6280   51.0048 H       1  ZINC001085817863    0.0600
     30 H30         1.6458    1.0153   52.7050 H       1  ZINC001085817863    0.1100
     31 H31        -0.1056    0.2102   47.4515 H       1  ZINC001085817863    0.0700
     32 H32        -1.8683   -0.0008   47.5804 H       1  ZINC001085817863    0.0700
     33 H33        -1.2002    1.4738   46.8405 H       1  ZINC001085817863    0.0600
     34 H34        -2.4215    0.0225   49.7378 H       1  ZINC001085817863    0.0800
     35 H35        -1.5990    1.0626   50.9252 H       1  ZINC001085817863    0.1000
     36 H36        -3.5263    3.0904   47.9386 H       1  ZINC001085817863    0.0800
     37 H37        -3.6875    1.2790   47.8269 H       1  ZINC001085817863    0.1000
     38 H38        -5.4085    3.2505   49.5045 H       1  ZINC001085817863    0.0700
     39 H39        -5.9426    1.7057   48.7140 H       1  ZINC001085817863    0.0800
     40 H40        -4.0112    1.9885   52.2696 H       1  ZINC001085817863    0.0900
     41 H41        -5.2524    3.0072   51.5015 H       1  ZINC001085817863    0.0500
     42 H42        -5.5601    1.6887   54.2344 H       1  ZINC001085817863    0.1300
     43 H43        -7.3613    0.2281   55.1313 H       1  ZINC001085817863    0.1300
     44 H44        -8.7114   -1.1144   53.5698 H       1  ZINC001085817863    0.1600
     45 H45        -6.6020    0.3589   50.3132 H       1  ZINC001085817863    0.1500
     46 H46        -1.5363    4.6841   50.3378 H       1  ZINC001085817863    0.1600
     47 H47        -0.9007    5.1640   52.8345 H       1  ZINC001085817863    0.1600
     48 H48         0.3666    2.7360   54.6118 H       1  ZINC001085817863    0.0800
     49 H49         1.9869    2.9269   53.9002 H       1  ZINC001085817863    0.0900
     50 H50         1.0536    4.3625   54.3863 H       1  ZINC001085817863    0.0900
@<TRIPOS>BOND
     1     1     2    1
     2     1    26    1
     3     1    27    1
     4     1    28    1
     5     2     3    1
     6     2    29    1
     7     2    30    1
     8     3    24    1
     9     3     4    2
    10     4     5    1
    11     4    22    1
    12     5     6    2
    13     5     7   am
    14     7     8    1
    15     7     9    1
    16     8    31    1
    17     8    32    1
    18     8    33    1
    19     9    10    1
    20     9    34    1
    21     9    35    1
    22    10    11    1
    23    10    14    1
    24    10    12    1
    25    12    13    1
    26    12    36    1
    27    12    37    1
    28    13    14    1
    29    13    38    1
    30    13    39    1
    31    14    15    1
    32    15    16    1
    33    15    40    1
    34    15    41    1
    35    16    21   ar
    36    16    17   ar
    37    17    18   ar
    38    17    42    1
    39    18    19   ar
    40    18    43    1
    41    19    20   ar
    42    19    44    1
    43    20    21   ar
    44    21    45    1
    45    22    23    2
    46    22    46    1
    47    23    24    1
    48    23    47    1
    49    24    25    1
    50    25    48    1
    51    25    49    1
    52    25    50    1
@<TRIPOS>SUBSTRUCTURE
     1 ZINC001085817863        1 TEMP              0 ****  ****    0 ROOT


##########                                Name:    ZINC001060620810
##########                DOCK_Rotatable_Bonds:                   5
##########                         Heavy_Atoms:                  24
##########                    Molecular_Weight:             332.421
##########                DOCK_Rotatable_Bonds:                   5
##########                       Formal_Charge:           0.0299998
##########                     HBond_Acceptors:                   6
##########                        HBond_Donors:                   2
##########                         Heavy_Atoms:                  24
##########                          Grid_Score:          -28.957960
##########                     Grid_vdw_energy:          -28.627375
##########                      Grid_es_energy:           -0.330585
##########           Internal_energy_repulsive:            8.211042

@<TRIPOS>MOLECULE
ZINC001060620810
 49 52 1 0 0
SMALL
USER_CHARGES


@<TRIPOS>ATOM
      1 O1         -5.6519    2.3716   49.1956 O.2     1  ZINC001060620810   -0.5400
      2 C2         -4.7848    2.0908   49.9958 C.2     1  ZINC001060620810    0.5500
      3 N3         -5.1108    1.5035   51.1643 N.am    1  ZINC001060620810   -0.7200
      4 C4         -6.5122    1.2026   51.4671 C.3     1  ZINC001060620810    0.1400
      5 C5         -6.5910   -0.0841   52.2911 C.3     1  ZINC001060620810   -0.1300
      6 C6         -8.0546   -0.3984   52.6074 C.3     1  ZINC001060620810   -0.1300
      7 C7         -8.6633    0.7565   53.4054 C.3     1  ZINC001060620810    0.1600
      8 N8         -7.9202    0.9310   54.6558 N.pl3   1  ZINC001060620810   -0.6900
      9 C9         -8.3931    0.3635   55.8277 C.ar    1  ZINC001060620810    0.5600
     10 N10        -9.4106   -0.4827   55.7709 N.ar    1  ZINC001060620810   -0.5400
     11 C11        -9.8840   -1.0465   56.8701 C.ar    1  ZINC001060620810    0.1700
     12 C12        -9.3078   -0.7331   58.0931 C.ar    1  ZINC001060620810   -0.0700
     13 F13        -9.7691   -1.2866   59.2360 F       1  ZINC001060620810   -0.1300
     14 C14        -8.2469    0.1613   58.1158 C.ar    1  ZINC001060620810    0.1800
     15 N15        -7.8202    0.6844   56.9780 N.ar    1  ZINC001060620810   -0.5500
     16 C16        -8.5845    2.0432   52.5814 C.3     1  ZINC001060620810   -0.1200
     17 C17        -7.1208    2.3574   52.2652 C.3     1  ZINC001060620810   -0.1300
     18 C18        -3.3430    2.3986   49.6835 C.3     1  ZINC001060620810   -0.1500
     19 C19        -2.7999    1.8027   48.3914 C.3     1  ZINC001060620810   -0.1500
     20 C20        -2.3869    1.2169   49.7246 C.3     1  ZINC001060620810   -0.1100
     21 H21        -2.8088    0.2415   49.9664 H       1  ZINC001060620810    0.1100
     22 C22        -0.9366    1.4052   50.1585 C.3     1  ZINC001060620810   -0.0900
     23 C23        -0.7780    2.7071   50.9441 C.3     1  ZINC001060620810   -0.1200
     24 C24        -1.3492    3.8564   50.1057 C.3     1  ZINC001060620810   -0.1200
     25 C25        -2.8751    3.7721   50.1386 C.3     1  ZINC001060620810   -0.0800
     26 H26        -4.4174    1.2801   51.8047 H       1  ZINC001060620810    0.4000
     27 H27        -7.0651    1.0727   50.5367 H       1  ZINC001060620810    0.0900
     28 H28        -6.1574   -0.9068   51.7226 H       1  ZINC001060620810    0.0700
     29 H29        -6.0381    0.0458   53.2214 H       1  ZINC001060620810    0.0600
     30 H30        -8.1108   -1.3150   53.1944 H       1  ZINC001060620810    0.0700
     31 H31        -8.6075   -0.5282   51.6770 H       1  ZINC001060620810    0.0800
     32 H32        -9.7060    0.5326   53.6307 H       1  ZINC001060620810    0.1000
     33 H33        -7.0969    1.4440   54.6631 H       1  ZINC001060620810    0.4100
     34 H34       -10.7114   -1.7385   56.8168 H       1  ZINC001060620810    0.1800
     35 H35        -7.7759    0.4273   59.0505 H       1  ZINC001060620810    0.1800
     36 H36        -9.0181    2.8659   53.1499 H       1  ZINC001060620810    0.0800
     37 H37        -9.1374    1.9133   51.6510 H       1  ZINC001060620810    0.0900
     38 H38        -6.5679    2.4873   53.1954 H       1  ZINC001060620810    0.0700
     39 H39        -7.0647    3.2741   51.6780 H       1  ZINC001060620810    0.0800
     40 H40        -3.4847    1.2140   47.7810 H       1  ZINC001060620810    0.1000
     41 H41        -2.0584    2.3824   47.8418 H       1  ZINC001060620810    0.1100
     42 H42        -0.3137    1.4445   49.2648 H       1  ZINC001060620810    0.0700
     43 H43        -0.6230    0.5671   50.7809 H       1  ZINC001060620810    0.0700
     44 H44         0.2783    2.8885   51.1425 H       1  ZINC001060620810    0.0700
     45 H45        -1.3228    2.6351   51.8856 H       1  ZINC001060620810    0.0700
     46 H46        -0.9998    3.7675   49.0770 H       1  ZINC001060620810    0.0700
     47 H47        -1.0262    4.8099   50.5236 H       1  ZINC001060620810    0.0700
     48 H48        -3.2917    4.5315   49.4768 H       1  ZINC001060620810    0.0700
     49 H49        -3.2229    3.9518   51.1559 H       1  ZINC001060620810    0.0700
@<TRIPOS>BOND
     1     1     2    2
     2     2     3   am
     3     2    18    1
     4     3     4    1
     5     3    26    1
     6     4    17    1
     7     4     5    1
     8     4    27    1
     9     5     6    1
    10     5    28    1
    11     5    29    1
    12     6     7    1
    13     6    30    1
    14     6    31    1
    15     7     8    1
    16     7    16    1
    17     7    32    1
    18     8     9    1
    19     8    33    1
    20     9    15   ar
    21     9    10   ar
    22    10    11   ar
    23    11    12   ar
    24    11    34    1
    25    12    13    1
    26    12    14   ar
    27    14    15   ar
    28    14    35    1
    29    16    17    1
    30    16    36    1
    31    16    37    1
    32    17    38    1
    33    17    39    1
    34    18    20    1
    35    18    25    1
    36    18    19    1
    37    19    20    1
    38    19    40    1
    39    19    41    1
    40    20    21    1
    41    20    22    1
    42    22    23    1
    43    22    42    1
    44    22    43    1
    45    23    24    1
    46    23    44    1
    47    23    45    1
    48    24    25    1
    49    24    46    1
    50    24    47    1
    51    25    48    1
    52    25    49    1
@<TRIPOS>SUBSTRUCTURE
     1 ZINC001060620810        1 TEMP              0 ****  ****    0 ROOT


##########                                Name:    ZINC001326371752
##########                DOCK_Rotatable_Bonds:                   5
##########                         Heavy_Atoms:                  25
##########                    Molecular_Weight:             360.397
##########                DOCK_Rotatable_Bonds:                   5
##########                       Formal_Charge:           0.0199999
##########                     HBond_Acceptors:                  10
##########                        HBond_Donors:                   0
##########                         Heavy_Atoms:                  25
##########                          Grid_Score:          -28.957739
##########                     Grid_vdw_energy:          -28.999067
##########                      Grid_es_energy:            0.041329
##########           Internal_energy_repulsive:            8.995787

@<TRIPOS>MOLECULE
ZINC001326371752
 41 44 1 0 0
SMALL
USER_CHARGES


@<TRIPOS>ATOM
      1 C1        -16.4122   -0.5796   58.2901 C.3     1  ZINC001326371752    0.0300
      2 O2        -15.7059   -1.6908   58.8454 O.3     1  ZINC001326371752   -0.3800
      3 C3        -16.3125   -2.9570   58.5793 C.3     1  ZINC001326371752    0.0500
      4 C4        -15.4752   -4.0677   59.2164 C.3     1  ZINC001326371752    0.1200
      5 N5        -14.1528   -4.1046   58.5869 N.pl3   1  ZINC001326371752   -0.2800
      6 N6        -13.8589   -4.6875   57.4733 N.2     1  ZINC001326371752   -0.0800
      7 N7        -12.6065   -4.5320   57.2043 N.2     1  ZINC001326371752   -0.2500
      8 C8        -12.0500   -3.8194   58.1772 C.2     1  ZINC001326371752   -0.0400
      9 C9        -13.0337   -3.5321   59.0653 C.2     1  ZINC001326371752    0.0000
     10 C10       -12.8440   -2.7282   60.3233 C.3     1  ZINC001326371752   -0.0600
     11 C11       -11.3474   -2.6829   60.6590 C.3     1  ZINC001326371752    0.1200
     12 N12       -10.5853   -2.3936   59.4354 N.am    1  ZINC001326371752   -0.6100
     13 C13        -9.8738   -1.2548   59.3189 C.2     1  ZINC001326371752    0.6100
     14 O14        -9.2482   -1.0300   58.2995 O.2     1  ZINC001326371752   -0.5100
     15 C15        -9.8535   -0.2862   60.4210 C.2     1  ZINC001326371752   -0.3400
     16 C16       -10.7008    0.8277   60.4066 C.2     1  ZINC001326371752    0.2400
     17 N17       -10.6556    1.6781   61.4145 N.2     1  ZINC001326371752   -0.5100
     18 C18        -9.8310    1.5075   62.4394 C.2     1  ZINC001326371752    0.2900
     19 S19        -9.5881    2.4612   63.8529 S.3     1  ZINC001326371752    0.2500
     20 C20        -8.3361    1.4082   64.5302 C.2     1  ZINC001326371752   -0.2100
     21 C21        -8.1917    0.4264   63.6562 C.2     1  ZINC001326371752    0.0500
     22 N22        -8.9777    0.4539   62.5296 N.am    1  ZINC001326371752   -0.4600
     23 C23        -8.9829   -0.4638   61.5184 C.2     1  ZINC001326371752    0.5500
     24 O24        -8.2378   -1.4274   61.5607 O.2     1  ZINC001326371752   -0.5000
     25 C25       -10.6182   -3.3750   58.3361 C.3     1  ZINC001326371752    0.2000
     26 H26       -15.8881    0.3437   58.5362 H       1  ZINC001326371752    0.0900
     27 H27       -16.4671   -0.6887   57.2069 H       1  ZINC001326371752    0.0500
     28 H28       -17.4202   -0.5466   58.7034 H       1  ZINC001326371752    0.0500
     29 H29       -17.3182   -2.9736   58.9996 H       1  ZINC001326371752    0.0600
     30 H30       -16.3662   -3.1149   57.5021 H       1  ZINC001326371752    0.0600
     31 H31       -15.3645   -3.8729   60.2831 H       1  ZINC001326371752    0.1200
     32 H32       -15.9731   -5.0265   59.0719 H       1  ZINC001326371752    0.1200
     33 H33       -13.2148   -1.7149   60.1689 H       1  ZINC001326371752    0.0900
     34 H34       -13.3883   -3.1978   61.1426 H       1  ZINC001326371752    0.1000
     35 H35       -11.1631   -1.9013   61.3961 H       1  ZINC001326371752    0.1100
     36 H36       -11.0356   -3.6462   61.0629 H       1  ZINC001326371752    0.0800
     37 H37       -11.3808    0.9889   59.5832 H       1  ZINC001326371752    0.1900
     38 H38        -7.8029    1.5401   65.4601 H       1  ZINC001326371752    0.2200
     39 H39        -7.4806   -0.3692   63.8222 H       1  ZINC001326371752    0.2000
     40 H40        -9.9941   -4.2330   58.5857 H       1  ZINC001326371752    0.1000
     41 H41       -10.2640   -2.9124   57.4148 H       1  ZINC001326371752    0.1000
@<TRIPOS>BOND
     1     1     2    1
     2     1    26    1
     3     1    27    1
     4     1    28    1
     5     2     3    1
     6     3     4    1
     7     3    29    1
     8     3    30    1
     9     4     5    1
    10     4    31    1
    11     4    32    1
    12     5     9    1
    13     5     6    1
    14     6     7    2
    15     7     8    1
    16     8    25    1
    17     8     9    2
    18     9    10    1
    19    10    11    1
    20    10    33    1
    21    10    34    1
    22    11    12    1
    23    11    35    1
    24    11    36    1
    25    12    13   am
    26    12    25    1
    27    13    14    2
    28    13    15    1
    29    15    23    1
    30    15    16    2
    31    16    17    1
    32    16    37    1
    33    17    18    2
    34    18    22    1
    35    18    19    1
    36    19    20    1
    37    20    21    2
    38    20    38    1
    39    21    22    1
    40    21    39    1
    41    22    23   am
    42    23    24    2
    43    25    40    1
    44    25    41    1
@<TRIPOS>SUBSTRUCTURE
     1 ZINC001326371752        1 TEMP              0 ****  ****    0 ROOT


##########                                Name:    ZINC000652498551
##########                DOCK_Rotatable_Bonds:                   6
##########                         Heavy_Atoms:                  23
##########                    Molecular_Weight:             388.277
##########                DOCK_Rotatable_Bonds:                   6
##########                       Formal_Charge:          -0.0400001
##########                     HBond_Acceptors:                   5
##########                        HBond_Donors:                   1
##########                         Heavy_Atoms:                  23
##########                          Grid_Score:          -28.954165
##########                     Grid_vdw_energy:          -27.732786
##########                      Grid_es_energy:           -1.221378
##########           Internal_energy_repulsive:           23.578487

@<TRIPOS>MOLECULE
ZINC000652498551
 46 47 1 0 0
SMALL
USER_CHARGES


@<TRIPOS>ATOM
      1 C1         -0.7091   -0.2504   46.3808 C.3     1  ZINC000652498551   -0.1300
      2 C2         -0.6890    1.1736   45.8215 C.3     1  ZINC000652498551   -0.1300
      3 C3          0.7288    1.5218   45.3638 C.3     1  ZINC000652498551   -0.1300
      4 C4         -1.6321    1.2664   44.6498 C.2     1  ZINC000652498551    0.5000
      5 O5         -2.2927    2.2766   44.4774 O.co2   1  ZINC000652498551   -0.7000
      6 O6         -1.7347    0.3313   43.8742 O.co2   1  ZINC000652498551   -0.6700
      7 C7         -1.1292    2.1552   46.9095 C.3     1  ZINC000652498551   -0.0600
      8 H8         -1.1302    3.1681   46.5070 H       1  ZINC000652498551    0.0700
      9 C9         -0.1600    2.0758   48.0924 C.3     1  ZINC000652498551   -0.1500
     10 C10        -0.6529    3.0035   49.2067 C.3     1  ZINC000652498551   -0.1400
     11 C11        -2.0787    2.6091   49.5978 C.3     1  ZINC000652498551   -0.0100
     12 N12        -2.9614    2.7310   48.4314 N.4     1  ZINC000652498551   -0.3800
     13 H13        -2.9166    3.6736   48.0740 H       1  ZINC000652498551    0.4200
     14 C14        -4.3418    2.4250   48.8296 C.3     1  ZINC000652498551    0.0000
     15 C15        -4.7758    3.3819   49.9418 C.3     1  ZINC000652498551    0.0200
     16 O16        -4.7070    2.7106   51.2015 O.3     1  ZINC000652498551   -0.3100
     17 C17        -5.8199    2.0447   51.6073 C.ar    1  ZINC000652498551    0.1600
     18 C18        -5.9598    0.6931   51.3304 C.ar    1  ZINC000652498551   -0.2300
     19 C19        -7.0941    0.0169   51.7446 C.ar    1  ZINC000652498551    0.1500
     20 F20        -7.2313   -1.2998   51.4754 F       1  ZINC000652498551   -0.1200
     21 C21        -8.0880    0.6896   52.4349 C.ar    1  ZINC000652498551   -0.1600
     22 C22        -7.9494    2.0381   52.7110 C.ar    1  ZINC000652498551   -0.0300
     23 Br23       -9.3086    2.9538   53.6542 Br      1  ZINC000652498551   -0.0100
     24 C24        -6.8151    2.7152   52.3039 C.ar    1  ZINC000652498551   -0.1300
     25 C25        -2.5378    1.7929   47.3848 C.3     1  ZINC000652498551   -0.0200
     26 H26        -0.0269   -0.3175   47.2283 H       1  ZINC000652498551    0.0400
     27 H27        -1.7192   -0.4984   46.7069 H       1  ZINC000652498551    0.0500
     28 H28        -0.3955   -0.9497   45.6057 H       1  ZINC000652498551    0.0600
     29 H29         1.0424    0.8226   44.5887 H       1  ZINC000652498551    0.0700
     30 H30         0.7431    2.5362   44.9652 H       1  ZINC000652498551    0.0400
     31 H31         1.4110    1.4547   46.2113 H       1  ZINC000652498551    0.0500
     32 H32        -0.1194    1.0513   48.4623 H       1  ZINC000652498551    0.1300
     33 H33         0.8337    2.3881   47.7710 H       1  ZINC000652498551    0.0800
     34 H34         0.0013    2.9106   50.0736 H       1  ZINC000652498551    0.1000
     35 H35        -0.6445    4.0343   48.8524 H       1  ZINC000652498551    0.0700
     36 H36        -2.0859    1.5784   49.9521 H       1  ZINC000652498551    0.1300
     37 H37        -2.4326    3.2675   50.3911 H       1  ZINC000652498551    0.1100
     38 H38        -5.0024    2.5429   47.9707 H       1  ZINC000652498551    0.1400
     39 H39        -4.3964    1.3984   49.1918 H       1  ZINC000652498551    0.1500
     40 H40        -4.1139    4.2478   49.9549 H       1  ZINC000652498551    0.1100
     41 H41        -5.7994    3.7096   49.7603 H       1  ZINC000652498551    0.0900
     42 H42        -5.1844    0.1686   50.7919 H       1  ZINC000652498551    0.1500
     43 H43        -8.9726    0.1610   52.7581 H       1  ZINC000652498551    0.1500
     44 H44        -6.7077    3.7677   52.5202 H       1  ZINC000652498551    0.1500
     45 H45        -3.2308    1.8488   46.5454 H       1  ZINC000652498551    0.1100
     46 H46        -2.5350    0.7793   47.7857 H       1  ZINC000652498551    0.1700
@<TRIPOS>BOND
     1     1     2    1
     2     1    26    1
     3     1    27    1
     4     1    28    1
     5     2     3    1
     6     2     4    1
     7     2     7    1
     8     3    29    1
     9     3    30    1
    10     3    31    1
    11     4     5   ar
    12     4     6   ar
    13     7     8    1
    14     7    25    1
    15     7     9    1
    16     9    10    1
    17     9    32    1
    18     9    33    1
    19    10    11    1
    20    10    34    1
    21    10    35    1
    22    11    12    1
    23    11    36    1
    24    11    37    1
    25    12    13    1
    26    12    14    1
    27    12    25    1
    28    14    15    1
    29    14    38    1
    30    14    39    1
    31    15    16    1
    32    15    40    1
    33    15    41    1
    34    16    17    1
    35    17    24   ar
    36    17    18   ar
    37    18    19   ar
    38    18    42    1
    39    19    20    1
    40    19    21   ar
    41    21    22   ar
    42    21    43    1
    43    22    23    1
    44    22    24   ar
    45    24    44    1
    46    25    45    1
    47    25    46    1
@<TRIPOS>SUBSTRUCTURE
     1 ZINC000652498551        1 TEMP              0 ****  ****    0 ROOT


##########                                Name:    ZINC001074839487
##########                DOCK_Rotatable_Bonds:                   7
##########                         Heavy_Atoms:                  25
##########                    Molecular_Weight:             344.454
##########                DOCK_Rotatable_Bonds:                   7
##########                       Formal_Charge:          -0.0500005
##########                     HBond_Acceptors:                   5
##########                        HBond_Donors:                   1
##########                         Heavy_Atoms:                  25
##########                          Grid_Score:          -28.903585
##########                     Grid_vdw_energy:          -29.281788
##########                      Grid_es_energy:            0.378202
##########           Internal_energy_repulsive:           90.622208

@<TRIPOS>MOLECULE
ZINC001074839487
 53 55 1 0 0
SMALL
USER_CHARGES


@<TRIPOS>ATOM
      1 C1        -11.2830   -3.1366   60.5346 C.3     1  ZINC001074839487   -0.1500
      2 C2        -10.5411   -1.7994   60.4856 C.3     1  ZINC001074839487   -0.1300
      3 C3         -9.1104   -2.0276   59.9939 C.3     1  ZINC001074839487   -0.1100
      4 C4         -8.3096   -0.7317   60.1356 C.3     1  ZINC001074839487   -0.1400
      5 C5         -8.9497    0.3482   59.3019 C.2     1  ZINC001074839487    0.5100
      6 O6         -9.7910    1.0727   59.7901 O.2     1  ZINC001074839487   -0.5400
      7 N7         -8.5873    0.5090   58.0138 N.am    1  ZINC001074839487   -0.7300
      8 C8         -9.2109    1.5575   57.2028 C.3     1  ZINC001074839487    0.1400
      9 H9         -9.4271    2.4219   57.8307 H       1  ZINC001074839487    0.0900
     10 C10        -8.2561    1.9691   56.0797 C.3     1  ZINC001074839487   -0.1500
     11 C11        -7.9275    0.7446   55.2199 C.3     1  ZINC001074839487    0.0700
     12 N12        -9.1843    0.1434   54.7534 N.am    1  ZINC001074839487   -0.6000
     13 C13        -9.3922   -0.0817   53.4408 C.2     1  ZINC001074839487    0.5600
     14 O14       -10.4361   -0.5799   53.0675 O.2     1  ZINC001074839487   -0.5200
     15 C15        -8.3503    0.2771   52.4552 C.ar    1  ZINC001074839487   -0.1300
     16 C16        -7.4051   -0.6700   52.0585 C.ar    1  ZINC001074839487   -0.1000
     17 C17        -6.4344   -0.3297   51.1380 C.ar    1  ZINC001074839487   -0.1000
     18 C18        -6.3975    0.9457   50.6097 C.ar    1  ZINC001074839487   -0.1100
     19 C19        -5.4819    1.6099   49.6073 C.3     1  ZINC001074839487    0.0900
     20 O20        -5.6722    3.0265   49.7753 O.3     1  ZINC001074839487   -0.3600
     21 C21        -7.0237    3.1666   50.2502 C.3     1  ZINC001074839487    0.0900
     22 C22        -7.3346    1.8922   51.0002 C.ar    1  ZINC001074839487   -0.1400
     23 C23        -8.3112    1.5637   51.9131 C.ar    1  ZINC001074839487   -0.0400
     24 C24       -10.2105   -0.2072   55.7446 C.3     1  ZINC001074839487    0.1500
     25 H25        -9.8429   -1.0112   56.3823 H       1  ZINC001074839487    0.0700
     26 C26       -11.4838   -0.6594   55.0269 C.3     1  ZINC001074839487   -0.1400
     27 C27       -10.5135    1.0279   56.5987 C.3     1  ZINC001074839487   -0.1400
     28 H28       -11.3073   -3.5754   59.5372 H       1  ZINC001074839487    0.0500
     29 H29       -12.3022   -2.9741   60.8850 H       1  ZINC001074839487    0.0500
     30 H30       -10.7679   -3.8131   61.2167 H       1  ZINC001074839487    0.0500
     31 H31       -11.0562   -1.1229   59.8036 H       1  ZINC001074839487    0.0600
     32 H32       -10.5168   -1.3606   61.4831 H       1  ZINC001074839487    0.0600
     33 H33        -8.6421   -2.8111   60.5896 H       1  ZINC001074839487    0.0700
     34 H34        -9.1300   -2.3299   58.9468 H       1  ZINC001074839487    0.0700
     35 H35        -8.2978   -0.4244   61.1814 H       1  ZINC001074839487    0.0900
     36 H36        -7.2878   -0.8968   59.7939 H       1  ZINC001074839487    0.0900
     37 H37        -7.9136   -0.0698   57.6237 H       1  ZINC001074839487    0.4000
     38 H38        -8.7293    2.7317   55.4612 H       1  ZINC001074839487    0.0800
     39 H39        -7.3379    2.3680   56.5109 H       1  ZINC001074839487    0.0800
     40 H40        -7.3283    1.0506   54.3623 H       1  ZINC001074839487    0.1200
     41 H41        -7.3737    0.0183   55.8148 H       1  ZINC001074839487    0.0700
     42 H42        -7.4334   -1.6679   52.4708 H       1  ZINC001074839487    0.1500
     43 H43        -5.7029   -1.0621   50.8301 H       1  ZINC001074839487    0.1400
     44 H44        -4.4449    1.3434   49.8117 H       1  ZINC001074839487    0.1000
     45 H45        -5.7543    1.3118   48.5948 H       1  ZINC001074839487    0.0800
     46 H46        -7.0998    4.0240   50.9188 H       1  ZINC001074839487    0.1000
     47 H47        -7.7070    3.2836   49.4091 H       1  ZINC001074839487    0.0800
     48 H48        -9.0426    2.2998   52.2124 H       1  ZINC001074839487    0.1400
     49 H49       -11.2933   -1.5975   54.5055 H       1  ZINC001074839487    0.0800
     50 H50       -12.2803   -0.8045   55.7567 H       1  ZINC001074839487    0.0500
     51 H51       -11.7849    0.1017   54.3070 H       1  ZINC001074839487    0.0700
     52 H52       -11.2019    0.7569   57.3991 H       1  ZINC001074839487    0.0900
     53 H53       -10.9654    1.7994   55.9752 H       1  ZINC001074839487    0.0900
@<TRIPOS>BOND
     1     1     2    1
     2     1    28    1
     3     1    29    1
     4     1    30    1
     5     2     3    1
     6     2    31    1
     7     2    32    1
     8     3     4    1
     9     3    33    1
    10     3    34    1
    11     4     5    1
    12     4    35    1
    13     4    36    1
    14     5     6    2
    15     5     7   am
    16     7     8    1
    17     7    37    1
    18     8     9    1
    19     8    27    1
    20     8    10    1
    21    10    11    1
    22    10    38    1
    23    10    39    1
    24    11    12    1
    25    11    40    1
    26    11    41    1
    27    12    13   am
    28    12    24    1
    29    13    14    2
    30    13    15    1
    31    15    23   ar
    32    15    16   ar
    33    16    17   ar
    34    16    42    1
    35    17    18   ar
    36    17    43    1
    37    18    22   ar
    38    18    19    1
    39    19    20    1
    40    19    44    1
    41    19    45    1
    42    20    21    1
    43    21    22    1
    44    21    46    1
    45    21    47    1
    46    22    23   ar
    47    23    48    1
    48    24    25    1
    49    24    26    1
    50    24    27    1
    51    26    49    1
    52    26    50    1
    53    26    51    1
    54    27    52    1
    55    27    53    1
@<TRIPOS>SUBSTRUCTURE
     1 ZINC001074839487        1 TEMP              0 ****  ****    0 ROOT


##########                                Name:    ZINC000186105981
##########                DOCK_Rotatable_Bonds:                   6
##########                         Heavy_Atoms:                  26
##########                    Molecular_Weight:             396.873
##########                DOCK_Rotatable_Bonds:                   6
##########                       Formal_Charge:          -0.0400003
##########                     HBond_Acceptors:                   9
##########                        HBond_Donors:                   1
##########                         Heavy_Atoms:                  26
##########                          Grid_Score:          -28.883345
##########                     Grid_vdw_energy:          -29.484232
##########                      Grid_es_energy:            0.600888
##########           Internal_energy_repulsive:           24.464304

@<TRIPOS>MOLECULE
ZINC000186105981
 44 46 1 0 0
SMALL
USER_CHARGES


@<TRIPOS>ATOM
      1 C1          1.6488    3.0784   49.0773 C.3     1  ZINC000186105981   -0.1400
      2 C2          0.4231    2.2135   49.3784 C.3     1  ZINC000186105981   -0.1100
      3 C3          0.0157    2.3980   50.8416 C.3     1  ZINC000186105981   -0.1600
      4 C4         -0.7337    2.6345   48.4699 C.3     1  ZINC000186105981    0.1600
      5 H5         -0.6994    3.7127   48.3140 H       1  ZINC000186105981    0.1200
      6 C6         -2.0424    2.2619   49.1178 C.2     1  ZINC000186105981    0.4900
      7 O7         -2.3076    1.0963   49.3224 O.2     1  ZINC000186105981   -0.4300
      8 N8         -2.9181    3.2241   49.4698 N.am    1  ZINC000186105981   -0.6300
      9 C9         -4.1249    2.8806   50.0671 C.2     1  ZINC000186105981    0.2400
     10 N10        -5.3100    3.0443   49.5518 N.2     1  ZINC000186105981   -0.2600
     11 N11        -6.3031    2.6737   50.2350 N.2     1  ZINC000186105981   -0.2000
     12 C12        -6.0712    2.1536   51.4076 C.2     1  ZINC000186105981    0.0300
     13 C13        -7.0899    1.6591   52.3576 C.ar    1  ZINC000186105981   -0.0500
     14 C14        -7.6472    2.5243   53.3028 C.ar    1  ZINC000186105981    0.1300
     15 F15        -7.2563    3.8167   53.3517 F       1  ZINC000186105981   -0.1200
     16 C16        -8.5996    2.0544   54.1875 C.ar    1  ZINC000186105981   -0.1400
     17 C17        -9.0009    0.7319   54.1381 C.ar    1  ZINC000186105981   -0.0600
     18 C18        -8.4527   -0.1302   53.2049 C.ar    1  ZINC000186105981   -0.1200
     19 C19        -7.5046    0.3262   52.3110 C.ar    1  ZINC000186105981    0.0200
     20 Cl20       -6.8191   -0.7577   51.1409 Cl      1  ZINC000186105981   -0.0100
     21 S21        -4.3241    2.1379   51.6555 S.3     1  ZINC000186105981    0.1200
     22 N22        -0.6153    1.9504   47.1799 N.am    1  ZINC000186105981   -0.6100
     23 C23         0.6310    1.3776   46.6576 C.3     1  ZINC000186105981    0.1000
     24 C24         0.2004    0.4119   45.5313 C.3     1  ZINC000186105981   -0.1300
     25 C25        -1.1557    1.0160   45.0992 C.3     1  ZINC000186105981   -0.1600
     26 C26        -1.6354    1.7615   46.3250 C.2     1  ZINC000186105981    0.5200
     27 O27        -2.7730    2.1403   46.5068 O.2     1  ZINC000186105981   -0.5000
     28 H28         2.4729    2.7785   49.7246 H       1  ZINC000186105981    0.0600
     29 H29         1.9390    2.9470   48.0350 H       1  ZINC000186105981    0.0600
     30 H30         1.4075    4.1259   49.2580 H       1  ZINC000186105981    0.0600
     31 H31         0.6644    1.1660   49.1978 H       1  ZINC000186105981    0.0900
     32 H32        -0.3149    3.4245   51.0000 H       1  ZINC000186105981    0.0600
     33 H33        -0.7977    1.7132   51.0814 H       1  ZINC000186105981    0.0600
     34 H34         0.8695    2.1878   51.4858 H       1  ZINC000186105981    0.0700
     35 H35        -2.7059    4.1564   49.3061 H       1  ZINC000186105981    0.4200
     36 H36        -9.0313    2.7214   54.9190 H       1  ZINC000186105981    0.1500
     37 H37        -9.7455    0.3700   54.8316 H       1  ZINC000186105981    0.1500
     38 H38        -8.7708   -1.1618   53.1726 H       1  ZINC000186105981    0.1500
     39 H39         1.2687    2.1651   46.2559 H       1  ZINC000186105981    0.0700
     40 H40         1.1536    0.8319   47.4432 H       1  ZINC000186105981    0.0800
     41 H41         0.9150    0.4290   44.7084 H       1  ZINC000186105981    0.0900
     42 H42         0.0723   -0.6008   45.9137 H       1  ZINC000186105981    0.0800
     43 H43        -1.0193    1.6996   44.2613 H       1  ZINC000186105981    0.1100
     44 H44        -1.8593    0.2256   44.8373 H       1  ZINC000186105981    0.1000
@<TRIPOS>BOND
     1     1     2    1
     2     1    28    1
     3     1    29    1
     4     1    30    1
     5     2     3    1
     6     2     4    1
     7     2    31    1
     8     3    32    1
     9     3    33    1
    10     3    34    1
    11     4     5    1
    12     4     6    1
    13     4    22    1
    14     6     7    2
    15     6     8   am
    16     8     9    1
    17     8    35    1
    18     9    21    1
    19     9    10    2
    20    10    11    1
    21    11    12    2
    22    12    13    1
    23    12    21    1
    24    13    19   ar
    25    13    14   ar
    26    14    15    1
    27    14    16   ar
    28    16    17   ar
    29    16    36    1
    30    17    18   ar
    31    17    37    1
    32    18    19   ar
    33    18    38    1
    34    19    20    1
    35    22    26   am
    36    22    23    1
    37    23    24    1
    38    23    39    1
    39    23    40    1
    40    24    25    1
    41    24    41    1
    42    24    42    1
    43    25    26    1
    44    25    43    1
    45    25    44    1
    46    26    27    2
@<TRIPOS>SUBSTRUCTURE
     1 ZINC000186105981        1 TEMP              0 ****  ****    0 ROOT


##########                                Name:    ZINC000863216249
##########                DOCK_Rotatable_Bonds:                   5
##########                         Heavy_Atoms:                  23
##########                    Molecular_Weight:             396.351
##########                DOCK_Rotatable_Bonds:                   5
##########                       Formal_Charge:         -0.00999944
##########                     HBond_Acceptors:                   5
##########                        HBond_Donors:                   1
##########                         Heavy_Atoms:                  23
##########                          Grid_Score:          -28.874563
##########                     Grid_vdw_energy:          -27.974442
##########                      Grid_es_energy:           -0.900121
##########           Internal_energy_repulsive:           20.576868

@<TRIPOS>MOLECULE
ZINC000863216249
 45 48 1 0 0
SMALL
USER_CHARGES


@<TRIPOS>ATOM
      1 S1        -14.8437   -0.0052   63.8614 S.2     1  ZINC000863216249   -0.5900
      2 C2        -13.4932   -0.1794   62.8238 C.2     1  ZINC000863216249    0.5600
      3 N3        -12.3476    0.4778   63.0925 N.am    1  ZINC000863216249   -0.6800
      4 C4        -12.2600    1.3460   64.2692 C.3     1  ZINC000863216249    0.1200
      5 C5        -10.8125    1.8037   64.4587 C.3     1  ZINC000863216249    0.0400
      6 N6        -10.0253    0.7093   65.0424 N.3     1  ZINC000863216249   -0.5300
      7 C7         -9.7339    0.9678   66.4600 C.3     1  ZINC000863216249    0.0000
      8 C8         -8.9658   -0.2215   67.0427 C.3     1  ZINC000863216249    0.0600
      9 O9         -7.7777   -0.4369   66.2763 O.3     1  ZINC000863216249   -0.3800
     10 C10        -8.0247   -0.6923   64.8909 C.3     1  ZINC000863216249    0.0600
     11 C11        -8.7833    0.4922   64.2865 C.3     1  ZINC000863216249    0.0200
     12 N12       -13.5738   -0.9782   61.7411 N.am    1  ZINC000863216249   -0.5100
     13 C13       -14.7624   -1.7424   61.3461 C.3     1  ZINC000863216249    0.1200
     14 C14       -14.3507   -2.4780   60.0670 C.3     1  ZINC000863216249   -0.1100
     15 C15       -14.8481   -3.8853   59.7606 C.3     1  ZINC000863216249   -0.1500
     16 C16       -15.3320   -2.6987   58.9223 C.3     1  ZINC000863216249   -0.1500
     17 C17       -12.9215   -2.0705   59.8187 C.ar    1  ZINC000863216249   -0.0700
     18 C18       -12.0338   -2.4159   58.8181 C.ar    1  ZINC000863216249   -0.0800
     19 C19       -10.7527   -1.8963   58.8144 C.ar    1  ZINC000863216249   -0.1000
     20 C20       -10.3597   -1.0276   59.8167 C.ar    1  ZINC000863216249   -0.0700
     21 Br21       -8.6081   -0.3150   59.8136 Br      1  ZINC000863216249   -0.0400
     22 C22       -11.2422   -0.6794   60.8184 C.ar    1  ZINC000863216249   -0.0900
     23 C23       -12.5386   -1.1957   60.8260 C.ar    1  ZINC000863216249    0.1400
     24 H24       -11.5812    0.3760   62.5067 H       1  ZINC000863216249    0.4000
     25 H25       -12.9006    2.2164   64.1272 H       1  ZINC000863216249    0.0900
     26 H26       -12.5855    0.7956   65.1519 H       1  ZINC000863216249    0.1000
     27 H27       -10.3896    2.0804   63.4929 H       1  ZINC000863216249    0.0900
     28 H28       -10.7882    2.6650   65.1263 H       1  ZINC000863216249    0.0400
     29 H29        -9.1292    1.8703   66.5485 H       1  ZINC000863216249    0.0500
     30 H30       -10.6683    1.1001   67.0054 H       1  ZINC000863216249    0.1000
     31 H31        -8.6979   -0.0097   68.0778 H       1  ZINC000863216249    0.1000
     32 H32        -9.5912   -1.1133   67.0031 H       1  ZINC000863216249    0.0600
     33 H33        -7.0761   -0.8212   64.3698 H       1  ZINC000863216249    0.1000
     34 H34        -8.6228   -1.5978   64.7888 H       1  ZINC000863216249    0.0600
     35 H35        -9.0237    0.2774   63.2453 H       1  ZINC000863216249    0.0900
     36 H36        -8.1633    1.3871   64.3402 H       1  ZINC000863216249    0.0500
     37 H37       -15.0301   -2.4566   62.1247 H       1  ZINC000863216249    0.0900
     38 H38       -15.5960   -1.0695   61.1448 H       1  ZINC000863216249    0.0900
     39 H39       -14.1460   -4.5774   59.2954 H       1  ZINC000863216249    0.1100
     40 H40       -15.5571   -4.3319   60.4577 H       1  ZINC000863216249    0.1100
     41 H41       -16.3593   -2.3648   59.0683 H       1  ZINC000863216249    0.1100
     42 H42       -14.9483   -2.6104   57.9060 H       1  ZINC000863216249    0.1100
     43 H43       -12.3415   -3.0944   58.0363 H       1  ZINC000863216249    0.1400
     44 H44       -10.0605   -2.1681   58.0313 H       1  ZINC000863216249    0.1400
     45 H45       -10.9293   -0.0010   61.5984 H       1  ZINC000863216249    0.1900
@<TRIPOS>BOND
     1     1     2    2
     2     2     3   am
     3     2    12   am
     4     3     4    1
     5     3    24    1
     6     4     5    1
     7     4    25    1
     8     4    26    1
     9     5     6    1
    10     5    27    1
    11     5    28    1
    12     6    11    1
    13     6     7    1
    14     7     8    1
    15     7    29    1
    16     7    30    1
    17     8     9    1
    18     8    31    1
    19     8    32    1
    20     9    10    1
    21    10    11    1
    22    10    33    1
    23    10    34    1
    24    11    35    1
    25    11    36    1
    26    12    23    1
    27    12    13    1
    28    13    14    1
    29    13    37    1
    30    13    38    1
    31    14    16    1
    32    14    15    1
    33    14    17    1
    34    15    16    1
    35    15    39    1
    36    15    40    1
    37    16    41    1
    38    16    42    1
    39    17    23   ar
    40    17    18   ar
    41    18    19   ar
    42    18    43    1
    43    19    20   ar
    44    19    44    1
    45    20    21    1
    46    20    22   ar
    47    22    23   ar
    48    22    45    1
@<TRIPOS>SUBSTRUCTURE
     1 ZINC000863216249        1 TEMP              0 ****  ****    0 ROOT


##########                                Name:    ZINC001070580102
##########                DOCK_Rotatable_Bonds:                   8
##########                         Heavy_Atoms:                  25
##########                    Molecular_Weight:              349.39
##########                DOCK_Rotatable_Bonds:                   8
##########                       Formal_Charge:          -0.0100003
##########                     HBond_Acceptors:                   9
##########                        HBond_Donors:                   3
##########                         Heavy_Atoms:                  25
##########                          Grid_Score:          -28.847660
##########                     Grid_vdw_energy:          -28.787613
##########                      Grid_es_energy:           -0.060047
##########           Internal_energy_repulsive:           13.056329

@<TRIPOS>MOLECULE
ZINC001070580102
 48 50 1 0 0
SMALL
USER_CHARGES


@<TRIPOS>ATOM
      1 C1         -5.6560    2.5423   49.3488 C.3     1  ZINC001070580102   -0.0800
      2 C2         -6.5234    1.7972   50.3303 C.2     1  ZINC001070580102   -0.0100
      3 C3         -7.6228    2.2860   50.9243 C.2     1  ZINC001070580102   -0.1900
      4 C4         -8.1288    1.2085   51.7873 C.2     1  ZINC001070580102   -0.2500
      5 C5         -9.3208    1.2462   52.6532 C.2     1  ZINC001070580102    0.6000
      6 O6         -9.8148    2.3137   52.9616 O.2     1  ZINC001070580102   -0.5300
      7 N7         -9.8635    0.0974   53.1030 N.am    1  ZINC001070580102   -0.7200
      8 C8        -11.0473    0.1350   53.9652 C.3     1  ZINC001070580102    0.2000
      9 C9        -11.0614   -1.0831   54.8526 C.2     1  ZINC001070580102    0.2600
     10 N10       -12.0332   -1.4394   55.6528 N.2     1  ZINC001070580102   -0.5100
     11 C11       -11.7080   -2.5664   56.2848 C.2     1  ZINC001070580102    0.2300
     12 C12       -12.5709   -3.2885   57.2872 C.3     1  ZINC001070580102    0.1400
     13 H13       -11.9713   -4.0281   57.8178 H       1  ZINC001070580102    0.0800
     14 C14       -13.7216   -3.9894   56.5603 C.3     1  ZINC001070580102    0.0800
     15 O15       -14.5789   -4.6099   57.5222 O.3     1  ZINC001070580102   -0.3800
     16 C16       -15.1335   -3.6968   58.4731 C.3     1  ZINC001070580102    0.0600
     17 C17       -13.9970   -2.9929   59.2194 C.3     1  ZINC001070580102    0.0200
     18 N18       -13.1208   -2.3215   58.2484 N.3     1  ZINC001070580102   -0.5200
     19 C19       -12.0472   -1.5854   58.9292 C.3     1  ZINC001070580102    0.0600
     20 C20       -12.2347   -0.0840   58.7018 C.3     1  ZINC001070580102    0.0800
     21 O21       -11.2336    0.6358   59.4242 O.3     1  ZINC001070580102   -0.5700
     22 N22       -10.5194   -2.9445   55.8937 N.2     1  ZINC001070580102   -0.2700
     23 N23       -10.0801   -1.9961   54.9556 N.pl3   1  ZINC001070580102   -0.4700
     24 C24        -7.2648    0.1664   51.6184 C.2     1  ZINC001070580102    0.0900
     25 C25        -7.3599   -1.1762   52.2962 C.3     1  ZINC001070580102   -0.0900
     26 O26        -6.3228    0.5367   50.7456 O.3     1  ZINC001070580102   -0.1700
     27 H27        -4.8372    1.8992   49.0263 H       1  ZINC001070580102    0.0800
     28 H28        -6.2527    2.8322   48.4838 H       1  ZINC001070580102    0.0900
     29 H29        -5.2510    3.4345   49.8262 H       1  ZINC001070580102    0.0900
     30 H30        -8.0488    3.2700   50.7952 H       1  ZINC001070580102    0.1500
     31 H31        -9.4702   -0.7542   52.8561 H       1  ZINC001070580102    0.4000
     32 H32       -11.0194    1.0334   54.5818 H       1  ZINC001070580102    0.1000
     33 H33       -11.9459    0.1454   53.3483 H       1  ZINC001070580102    0.1100
     34 H34       -14.2890   -3.2572   55.9859 H       1  ZINC001070580102    0.0700
     35 H35       -13.3195   -4.7477   55.8883 H       1  ZINC001070580102    0.1000
     36 H36       -15.7419   -2.9561   57.9542 H       1  ZINC001070580102    0.0600
     37 H37       -15.7524   -4.2434   59.1845 H       1  ZINC001070580102    0.1000
     38 H38       -14.4139   -2.2549   59.9047 H       1  ZINC001070580102    0.1200
     39 H39       -13.4206   -3.7278   59.7814 H       1  ZINC001070580102    0.0400
     40 H40       -12.0817   -1.7981   59.9975 H       1  ZINC001070580102    0.0500
     41 H41       -11.0826   -1.8960   58.5277 H       1  ZINC001070580102    0.0800
     42 H42       -12.1444    0.1365   57.6382 H       1  ZINC001070580102    0.0500
     43 H43       -13.2222    0.2160   59.0525 H       1  ZINC001070580102    0.0600
     44 H44       -11.4497    0.7828   60.3553 H       1  ZINC001070580102    0.3800
     45 H45        -9.2340   -1.9964   54.4811 H       1  ZINC001070580102    0.4400
     46 H46        -7.9578   -1.8509   51.6835 H       1  ZINC001070580102    0.0900
     47 H47        -6.3597   -1.5907   52.4230 H       1  ZINC001070580102    0.0800
     48 H48        -7.8306   -1.0580   53.2721 H       1  ZINC001070580102    0.1100
@<TRIPOS>BOND
     1     1     2    1
     2     1    27    1
     3     1    28    1
     4     1    29    1
     5     2    26    1
     6     2     3    2
     7     3     4    1
     8     3    30    1
     9     4     5    1
    10     4    24    2
    11     5     6    2
    12     5     7   am
    13     7     8    1
    14     7    31    1
    15     8     9    1
    16     8    32    1
    17     8    33    1
    18     9    23    1
    19     9    10    2
    20    10    11    1
    21    11    12    1
    22    11    22    2
    23    12    13    1
    24    12    18    1
    25    12    14    1
    26    14    15    1
    27    14    34    1
    28    14    35    1
    29    15    16    1
    30    16    17    1
    31    16    36    1
    32    16    37    1
    33    17    18    1
    34    17    38    1
    35    17    39    1
    36    18    19    1
    37    19    20    1
    38    19    40    1
    39    19    41    1
    40    20    21    1
    41    20    42    1
    42    20    43    1
    43    21    44    1
    44    22    23    1
    45    23    45    1
    46    24    25    1
    47    24    26    1
    48    25    46    1
    49    25    47    1
    50    25    48    1
@<TRIPOS>SUBSTRUCTURE
     1 ZINC001070580102        1 TEMP              0 ****  ****    0 ROOT


##########                                Name:    ZINC001199210165
##########                DOCK_Rotatable_Bonds:                   5
##########                         Heavy_Atoms:                  23
##########                    Molecular_Weight:             375.225
##########                DOCK_Rotatable_Bonds:                   5
##########                       Formal_Charge:         -0.00999999
##########                     HBond_Acceptors:                   6
##########                        HBond_Donors:                   2
##########                         Heavy_Atoms:                  23
##########                          Grid_Score:          -28.841946
##########                     Grid_vdw_energy:          -28.695694
##########                      Grid_es_energy:           -0.146253
##########           Internal_energy_repulsive:            5.774485

@<TRIPOS>MOLECULE
ZINC001199210165
 38 40 1 0 0
SMALL
USER_CHARGES


@<TRIPOS>ATOM
      1 C1         -1.8542    1.3255   49.0454 C.3     1  ZINC001199210165   -0.1700
      2 C2         -3.0850    1.8973   49.7520 C.3     1  ZINC001199210165    0.0800
      3 C3         -2.8819    3.3933   49.9996 C.3     1  ZINC001199210165   -0.1500
      4 O4         -4.2387    1.7025   48.9315 O.3     1  ZINC001199210165   -0.3000
      5 C5         -5.4487    1.8946   49.5144 C.ar    1  ZINC001199210165    0.3300
      6 C6         -5.7829    1.1764   50.6547 C.ar    1  ZINC001199210165   -0.1300
      7 C7         -7.0318    1.3851   51.2431 C.ar    1  ZINC001199210165   -0.0600
      8 C8         -7.4326    0.6427   52.4606 C.2     1  ZINC001199210165    0.5700
      9 O9         -6.9768   -0.4632   52.6755 O.2     1  ZINC001199210165   -0.4900
     10 N10        -8.3027    1.1936   53.3299 N.am    1  ZINC001199210165   -0.6600
     11 C11        -8.6810    0.4928   54.4791 C.ar    1  ZINC001199210165    0.2000
     12 C12        -8.3627    1.0042   55.7382 C.ar    1  ZINC001199210165   -0.1500
     13 C13        -8.7237    0.3349   56.8697 C.ar    1  ZINC001199210165   -0.0200
     14 C14        -9.4196   -0.8753   56.7719 C.ar    1  ZINC001199210165   -0.1700
     15 C15        -9.9431   -1.8234   57.7513 C.2     1  ZINC001199210165    0.0900
     16 Br16       -9.8164   -1.6672   59.6315 Br      1  ZINC001199210165    0.0600
     17 N17       -10.5135   -2.7959   57.0984 N.2     1  ZINC001199210165   -0.2100
     18 N18       -10.4139   -2.5736   55.7211 N.pl3   1  ZINC001199210165   -0.4900
     19 C19        -9.7443   -1.3973   55.5043 C.ar    1  ZINC001199210165    0.1500
     20 C20        -9.3727   -0.6986   54.3597 C.ar    1  ZINC001199210165   -0.1700
     21 C21        -7.8946    2.3149   50.6519 C.ar    1  ZINC001199210165   -0.1900
     22 C22        -7.4839    2.9865   49.5184 C.ar    1  ZINC001199210165    0.1400
     23 N23        -6.2940    2.7674   48.9932 N.ar    1  ZINC001199210165   -0.5200
     24 H24        -1.7127    1.8355   48.0925 H       1  ZINC001199210165    0.0600
     25 H25        -0.9743    1.4740   49.6712 H       1  ZINC001199210165    0.0700
     26 H26        -1.9989    0.2597   48.8689 H       1  ZINC001199210165    0.0600
     27 H27        -3.2266    1.3872   50.7048 H       1  ZINC001199210165    0.0900
     28 H28        -2.7403    3.9034   49.0467 H       1  ZINC001199210165    0.0700
     29 H29        -3.7587    3.8007   50.5030 H       1  ZINC001199210165    0.0600
     30 H30        -2.0019    3.5419   50.6254 H       1  ZINC001199210165    0.0800
     31 H31        -5.0879    0.4673   51.0796 H       1  ZINC001199210165    0.1600
     32 H32        -8.6665    2.0763   53.1584 H       1  ZINC001199210165    0.4100
     33 H33        -7.8254    1.9378   55.8168 H       1  ZINC001199210165    0.1500
     34 H34        -8.4729    0.7378   57.8399 H       1  ZINC001199210165    0.1400
     35 H35       -10.7629   -3.1581   55.0302 H       1  ZINC001199210165    0.4500
     36 H36        -9.6206   -1.0867   53.3828 H       1  ZINC001199210165    0.1400
     37 H37        -8.8692    2.5042   51.0770 H       1  ZINC001199210165    0.1400
     38 H38        -8.1448    3.7052   49.0569 H       1  ZINC001199210165    0.1700
@<TRIPOS>BOND
     1     1     2    1
     2     1    24    1
     3     1    25    1
     4     1    26    1
     5     2     3    1
     6     2     4    1
     7     2    27    1
     8     3    28    1
     9     3    29    1
    10     3    30    1
    11     4     5    1
    12     5    23   ar
    13     5     6   ar
    14     6     7   ar
    15     6    31    1
    16     7     8    1
    17     7    21   ar
    18     8     9    2
    19     8    10   am
    20    10    11    1
    21    10    32    1
    22    11    20   ar
    23    11    12   ar
    24    12    13   ar
    25    12    33    1
    26    13    14   ar
    27    13    34    1
    28    14    19   ar
    29    14    15    1
    30    15    16    1
    31    15    17    2
    32    17    18    1
    33    18    19    1
    34    18    35    1
    35    19    20   ar
    36    20    36    1
    37    21    22   ar
    38    21    37    1
    39    22    23   ar
    40    22    38    1
@<TRIPOS>SUBSTRUCTURE
     1 ZINC001199210165        1 TEMP              0 ****  ****    0 ROOT


##########                                Name:    ZINC001176298561
##########                DOCK_Rotatable_Bonds:                   6
##########                         Heavy_Atoms:                  23
##########                    Molecular_Weight:             337.781
##########                DOCK_Rotatable_Bonds:                   6
##########                       Formal_Charge:          -0.0100003
##########                     HBond_Acceptors:                   7
##########                        HBond_Donors:                   2
##########                         Heavy_Atoms:                  23
##########                          Grid_Score:          -28.829590
##########                     Grid_vdw_energy:          -25.414660
##########                      Grid_es_energy:           -3.414929
##########           Internal_energy_repulsive:            9.010687

@<TRIPOS>MOLECULE
ZINC001176298561
 40 41 1 0 0
SMALL
USER_CHARGES


@<TRIPOS>ATOM
      1 C1        -10.1632   -0.3460   53.5726 C.3     1  ZINC001176298561   -0.1700
      2 C2         -8.6753   -0.3274   53.9284 C.3     1  ZINC001176298561    0.1100
      3 N3         -8.0097    0.7472   53.1879 N.am    1  ZINC001176298561   -0.6100
      4 C4         -7.7743    2.0427   53.8301 C.3     1  ZINC001176298561    0.0900
      5 C5         -6.3911    2.0438   54.4842 C.3     1  ZINC001176298561   -0.1800
      6 C6         -7.6138    0.5440   51.9157 C.2     1  ZINC001176298561    0.5600
      7 O7         -7.8090   -0.5309   51.3828 O.2     1  ZINC001176298561   -0.5300
      8 C8         -6.9419    1.6286   51.1682 C.ar    1  ZINC001176298561   -0.0600
      9 C9         -7.6994    2.5769   50.4792 C.ar    1  ZINC001176298561   -0.1900
     10 C10        -7.0688    3.5902   49.7808 C.ar    1  ZINC001176298561    0.1400
     11 F11        -7.8034    4.5077   49.1147 F       1  ZINC001176298561   -0.1300
     12 C12        -5.6870    3.6672   49.7629 C.ar    1  ZINC001176298561   -0.1800
     13 C13        -4.9254    2.7265   50.4466 C.ar    1  ZINC001176298561    0.2400
     14 N14        -3.5311    2.8086   50.4260 N.pl3   1  ZINC001176298561   -0.6700
     15 C15        -2.8047    2.1330   49.4381 C.2     1  ZINC001176298561    0.0400
     16 C16        -3.0717    2.3484   48.1136 C.2     1  ZINC001176298561   -0.0300
     17 C17        -2.3286    1.6588   47.1437 C.2     1  ZINC001176298561   -0.1300
     18 Cl18       -2.6510    1.9175   45.4576 Cl      1  ZINC001176298561   -0.0400
     19 C19        -1.3603    0.7924   47.5221 C.2     1  ZINC001176298561    0.1400
     20 N20        -1.0938    0.5771   48.8391 N.am    1  ZINC001176298561   -0.6000
     21 C21        -1.7839    1.2254   49.7967 C.2     1  ZINC001176298561    0.5100
     22 O22        -1.5331    1.0221   50.9739 O.2     1  ZINC001176298561   -0.5200
     23 C23        -5.5497    1.7102   51.1543 C.ar    1  ZINC001176298561   -0.1300
     24 H24       -10.6585   -1.1455   54.1236 H       1  ZINC001176298561    0.0700
     25 H25       -10.6124    0.6108   53.8385 H       1  ZINC001176298561    0.0600
     26 H26       -10.2788   -0.5167   52.5022 H       1  ZINC001176298561    0.0600
     27 H27        -8.5598   -0.1566   54.9987 H       1  ZINC001176298561    0.0800
     28 H28        -8.2261   -1.2843   53.6625 H       1  ZINC001176298561    0.0900
     29 H29        -7.8228    2.8336   53.0816 H       1  ZINC001176298561    0.0900
     30 H30        -8.5359    2.2150   54.5906 H       1  ZINC001176298561    0.0800
     31 H31        -5.6810    1.5337   53.8333 H       1  ZINC001176298561    0.0700
     32 H32        -6.0650    3.0718   54.6428 H       1  ZINC001176298561    0.0700
     33 H33        -6.4419    1.5269   55.4425 H       1  ZINC001176298561    0.0600
     34 H34        -8.7777    2.5192   50.4911 H       1  ZINC001176298561    0.1500
     35 H35        -5.1991    4.4603   49.2157 H       1  ZINC001176298561    0.1300
     36 H36        -3.0662    3.3335   51.0962 H       1  ZINC001176298561    0.4200
     37 H37        -3.8457    3.0412   47.8180 H       1  ZINC001176298561    0.1500
     38 H38        -0.7925    0.2652   46.7697 H       1  ZINC001176298561    0.1800
     39 H39        -0.3961   -0.0480   49.0909 H       1  ZINC001176298561    0.4300
     40 H40        -4.9591    0.9788   51.6860 H       1  ZINC001176298561    0.1400
@<TRIPOS>BOND
     1     1     2    1
     2     1    24    1
     3     1    25    1
     4     1    26    1
     5     2     3    1
     6     2    27    1
     7     2    28    1
     8     3     4    1
     9     3     6   am
    10     4     5    1
    11     4    29    1
    12     4    30    1
    13     5    31    1
    14     5    32    1
    15     5    33    1
    16     6     7    2
    17     6     8    1
    18     8    23   ar
    19     8     9   ar
    20     9    10   ar
    21     9    34    1
    22    10    11    1
    23    10    12   ar
    24    12    13   ar
    25    12    35    1
    26    13    14    1
    27    13    23   ar
    28    14    15    1
    29    14    36    1
    30    15    21    1
    31    15    16    2
    32    16    17    1
    33    16    37    1
    34    17    18    1
    35    17    19    2
    36    19    20    1
    37    19    38    1
    38    20    21   am
    39    20    39    1
    40    21    22    2
    41    23    40    1
@<TRIPOS>SUBSTRUCTURE
     1 ZINC001176298561        1 TEMP              0 ****  ****    0 ROOT


##########                                Name:    ZINC001371344729
##########                DOCK_Rotatable_Bonds:                   9
##########                         Heavy_Atoms:                  24
##########                    Molecular_Weight:             332.399
##########                DOCK_Rotatable_Bonds:                   9
##########                       Formal_Charge:          0.00999983
##########                     HBond_Acceptors:                   6
##########                        HBond_Donors:                   1
##########                         Heavy_Atoms:                  24
##########                          Grid_Score:          -28.825527
##########                     Grid_vdw_energy:          -27.435144
##########                      Grid_es_energy:           -1.390382
##########           Internal_energy_repulsive:           26.218458

@<TRIPOS>MOLECULE
ZINC001371344729
 48 49 1 0 0
SMALL
USER_CHARGES


@<TRIPOS>ATOM
      1 C1          0.6254    4.2253   49.0298 C.3     1  ZINC001371344729   -0.1800
      2 C2          0.3370    2.8858   49.7104 C.3     1  ZINC001371344729    0.1000
      3 N3         -0.3768    2.0085   48.7792 N.am    1  ZINC001371344729   -0.6100
      4 C4          0.2933    1.3940   47.7842 C.2     1  ZINC001371344729    0.5100
      5 O5          1.4869    1.5686   47.6588 O.2     1  ZINC001371344729   -0.5200
      6 C6         -0.4406    0.4901   46.8275 C.3     1  ZINC001371344729   -0.0600
      7 C7          0.3104    0.4239   45.5226 C.2     1  ZINC001371344729   -0.0100
      8 C8         -0.2268    0.1587   44.3183 C.2     1  ZINC001371344729   -0.1600
      9 C9         -1.6777   -0.1240   44.0247 C.3     1  ZINC001371344729   -0.0800
     10 C10         0.8318    0.1901   43.3817 C.2     1  ZINC001371344729   -0.2100
     11 C11         1.9511    0.4819   44.0683 C.2     1  ZINC001371344729   -0.0300
     12 O12         1.6299    0.6188   45.3652 O.3     1  ZINC001371344729   -0.1700
     13 C13        -1.8189    1.7990   48.9296 C.3     1  ZINC001371344729    0.1200
     14 H14        -2.0912    0.8311   48.5088 H       1  ZINC001371344729    0.1100
     15 C15        -2.5746    2.9064   48.1924 C.3     1  ZINC001371344729   -0.1600
     16 C16        -2.1869    1.8314   50.4143 C.3     1  ZINC001371344729    0.1100
     17 N17        -3.4876    1.1860   50.6092 N.am    1  ZINC001371344729   -0.7200
     18 C18        -4.3134    1.6151   51.5841 C.2     1  ZINC001371344729    0.5900
     19 O19        -3.9793    2.5388   52.3011 O.2     1  ZINC001371344729   -0.5300
     20 C20        -5.6211    0.9647   51.7813 C.2     1  ZINC001371344729   -0.2300
     21 C21        -6.3665    0.3107   50.8445 C.2     1  ZINC001371344729    0.0200
     22 O22        -7.4827   -0.1347   51.4293 O.3     1  ZINC001371344729   -0.1700
     23 C23        -7.5129    0.2075   52.7268 C.2     1  ZINC001371344729   -0.0100
     24 C24        -8.6221   -0.1230   53.6919 C.3     1  ZINC001371344729   -0.0800
     25 C25        -6.3979    0.8907   53.0274 C.2     1  ZINC001371344729   -0.1600
     26 H26        -0.3143    4.6938   48.7370 H       1  ZINC001371344729    0.0700
     27 H27         1.1564    4.8781   49.7226 H       1  ZINC001371344729    0.0700
     28 H28         1.2393    4.0585   48.1447 H       1  ZINC001371344729    0.0600
     29 H29        -0.2770    3.0527   50.5954 H       1  ZINC001371344729    0.0900
     30 H30         1.2767    2.4173   50.0031 H       1  ZINC001371344729    0.0800
     31 H31        -1.4416    0.8838   46.6509 H       1  ZINC001371344729    0.1100
     32 H32        -0.5138   -0.5096   47.2557 H       1  ZINC001371344729    0.1200
     33 H33        -2.1932    0.8114   43.8068 H       1  ZINC001371344729    0.0700
     34 H34        -1.7513   -0.7884   43.1637 H       1  ZINC001371344729    0.0700
     35 H35        -2.1378   -0.5993   44.8910 H       1  ZINC001371344729    0.0600
     36 H36         0.7559    0.0160   42.3185 H       1  ZINC001371344729    0.1500
     37 H37         2.9411    0.5834   43.6487 H       1  ZINC001371344729    0.2000
     38 H38        -2.3124    2.8833   47.1347 H       1  ZINC001371344729    0.0700
     39 H39        -3.6476    2.7506   48.3043 H       1  ZINC001371344729    0.0700
     40 H40        -2.3022    3.8743   48.6133 H       1  ZINC001371344729    0.0700
     41 H41        -1.4279    1.2999   50.9884 H       1  ZINC001371344729    0.0800
     42 H42        -2.2402    2.8660   50.7529 H       1  ZINC001371344729    0.0800
     43 H43        -3.7545    0.4500   50.0366 H       1  ZINC001371344729    0.4000
     44 H44        -6.0990    0.1741   49.8070 H       1  ZINC001371344729    0.2100
     45 H45        -9.3629    0.6766   53.6817 H       1  ZINC001371344729    0.0800
     46 H46        -9.0944   -1.0596   53.3958 H       1  ZINC001371344729    0.0800
     47 H47        -8.2113   -0.2249   54.6964 H       1  ZINC001371344729    0.0900
     48 H48        -6.1264    1.3021   53.9884 H       1  ZINC001371344729    0.1600
@<TRIPOS>BOND
     1     1     2    1
     2     1    26    1
     3     1    27    1
     4     1    28    1
     5     2     3    1
     6     2    29    1
     7     2    30    1
     8     3     4   am
     9     3    13    1
    10     4     5    2
    11     4     6    1
    12     6     7    1
    13     6    31    1
    14     6    32    1
    15     7    12    1
    16     7     8    2
    17     8     9    1
    18     8    10    1
    19     9    33    1
    20     9    34    1
    21     9    35    1
    22    10    11    2
    23    10    36    1
    24    11    12    1
    25    11    37    1
    26    13    14    1
    27    13    15    1
    28    13    16    1
    29    15    38    1
    30    15    39    1
    31    15    40    1
    32    16    17    1
    33    16    41    1
    34    16    42    1
    35    17    18   am
    36    17    43    1
    37    18    19    2
    38    18    20    1
    39    20    25    1
    40    20    21    2
    41    21    22    1
    42    21    44    1
    43    22    23    1
    44    23    24    1
    45    23    25    2
    46    24    45    1
    47    24    46    1
    48    24    47    1
    49    25    48    1
@<TRIPOS>SUBSTRUCTURE
     1 ZINC001371344729        1 TEMP              0 ****  ****    0 ROOT


##########                                Name:    ZINC001122903793
##########                DOCK_Rotatable_Bonds:                   4
##########                         Heavy_Atoms:                  25
##########                    Molecular_Weight:             399.968
##########                DOCK_Rotatable_Bonds:                   4
##########                       Formal_Charge:           0.0100003
##########                     HBond_Acceptors:                   9
##########                        HBond_Donors:                   0
##########                         Heavy_Atoms:                  25
##########                          Grid_Score:          -28.816339
##########                     Grid_vdw_energy:          -29.520765
##########                      Grid_es_energy:            0.704425
##########           Internal_energy_repulsive:           13.835595

@<TRIPOS>MOLECULE
ZINC001122903793
 47 50 1 0 0
SMALL
USER_CHARGES


@<TRIPOS>ATOM
      1 C1         -7.3991    1.1393   52.7531 C.3     1  ZINC001122903793   -0.1400
      2 C2         -5.9507    1.6322   52.7691 C.3     1  ZINC001122903793   -0.0400
      3 H3         -5.2990    0.8414   53.1408 H       1  ZINC001122903793    0.1000
      4 S4         -5.8140    3.0929   53.8443 S.3     1  ZINC001122903793   -0.2500
      5 C5         -4.1198    3.6570   53.4977 C.3     1  ZINC001122903793   -0.0800
      6 C6         -3.9479    3.7765   51.9796 C.3     1  ZINC001122903793    0.0700
      7 N7         -4.1280    2.4646   51.3537 N.3     1  ZINC001122903793   -0.4800
      8 C8         -3.6011    2.4493   50.0726 C.2     1  ZINC001122903793    0.3700
      9 N9         -4.0344    3.1414   49.0448 N.2     1  ZINC001122903793   -0.2900
     10 N10        -3.3174    2.8907   48.0082 N.2     1  ZINC001122903793   -0.2400
     11 C11        -2.3796    2.0206   48.3115 C.2     1  ZINC001122903793    0.2600
     12 C12        -1.3589    1.4795   47.3992 C.2     1  ZINC001122903793   -0.1600
     13 C13        -0.2107    2.0956   47.0306 C.2     1  ZINC001122903793    0.1600
     14 Cl14        0.2399    3.6719   47.6015 Cl      1  ZINC001122903793    0.0300
     15 N15         0.5329    1.3962   46.2027 N.2     1  ZINC001122903793   -0.4600
     16 C16         0.0928    0.2348   45.8478 C.2     1  ZINC001122903793    0.0300
     17 S17        -1.4089   -0.0889   46.5977 S.3     1  ZINC001122903793    0.2200
     18 N18        -2.5303    1.7153   49.6457 N.pl3   1  ZINC001122903793   -0.4600
     19 C19        -1.7172    0.7908   50.4398 C.3     1  ZINC001122903793    0.1100
     20 C20        -0.2905    1.3322   50.5499 C.3     1  ZINC001122903793    0.0700
     21 H21         0.1021    1.5662   49.5604 H       1  ZINC001122903793    0.0800
     22 C22        -0.2614    2.5918   51.4519 C.3     1  ZINC001122903793   -0.1500
     23 C23         1.2126    2.5704   51.9406 C.3     1  ZINC001122903793   -0.1500
     24 C24         1.5013    1.0573   52.0448 C.3     1  ZINC001122903793    0.0500
     25 O25         0.5559    0.3768   51.2089 O.3     1  ZINC001122903793   -0.3700
     26 C26        -5.5252    2.0257   51.3504 C.3     1  ZINC001122903793    0.1000
     27 H27        -6.1597    2.8395   50.9994 H       1  ZINC001122903793    0.0800
     28 C28        -5.6781    0.8231   50.4170 C.3     1  ZINC001122903793   -0.1500
     29 H29        -7.4795    0.2683   52.1027 H       1  ZINC001122903793    0.0800
     30 H30        -7.7013    0.8668   53.7644 H       1  ZINC001122903793    0.0700
     31 H31        -8.0484    1.9318   52.3810 H       1  ZINC001122903793    0.0700
     32 H32        -3.9552    4.6291   53.9626 H       1  ZINC001122903793    0.1200
     33 H33        -3.4054    2.9341   53.8914 H       1  ZINC001122903793    0.0900
     34 H34        -4.6894    4.4710   51.5847 H       1  ZINC001122903793    0.0700
     35 H35        -2.9486    4.1501   51.7566 H       1  ZINC001122903793    0.0900
     36 H36         0.6036   -0.4386   45.1756 H       1  ZINC001122903793    0.2100
     37 H37        -2.1470    0.6936   51.4368 H       1  ZINC001122903793    0.1200
     38 H38        -1.6992   -0.1853   49.9552 H       1  ZINC001122903793    0.1000
     39 H39        -0.4711    3.4926   50.8753 H       1  ZINC001122903793    0.0900
     40 H40        -0.9539    2.4924   52.2878 H       1  ZINC001122903793    0.0800
     41 H41         1.8703    3.0414   51.2102 H       1  ZINC001122903793    0.0800
     42 H42         1.3054    3.0509   52.9146 H       1  ZINC001122903793    0.0900
     43 H43         2.5143    0.8496   51.7000 H       1  ZINC001122903793    0.0700
     44 H44         1.3864    0.7292   53.0778 H       1  ZINC001122903793    0.0700
     45 H45        -5.0418    0.0094   50.7655 H       1  ZINC001122903793    0.0600
     46 H46        -6.7177    0.4954   50.4139 H       1  ZINC001122903793    0.0800
     47 H47        -5.3836    1.1074   49.4069 H       1  ZINC001122903793    0.0600
@<TRIPOS>BOND
     1     1     2    1
     2     1    29    1
     3     1    30    1
     4     1    31    1
     5     2     3    1
     6     2    26    1
     7     2     4    1
     8     4     5    1
     9     5     6    1
    10     5    32    1
    11     5    33    1
    12     6     7    1
    13     6    34    1
    14     6    35    1
    15     7     8    1
    16     7    26    1
    17     8    18    1
    18     8     9    2
    19     9    10    1
    20    10    11    2
    21    11    12    1
    22    11    18    1
    23    12    17    1
    24    12    13    2
    25    13    14    1
    26    13    15    1
    27    15    16    2
    28    16    17    1
    29    16    36    1
    30    18    19    1
    31    19    20    1
    32    19    37    1
    33    19    38    1
    34    20    21    1
    35    20    25    1
    36    20    22    1
    37    22    23    1
    38    22    39    1
    39    22    40    1
    40    23    24    1
    41    23    41    1
    42    23    42    1
    43    24    25    1
    44    24    43    1
    45    24    44    1
    46    26    27    1
    47    26    28    1
    48    28    45    1
    49    28    46    1
    50    28    47    1
@<TRIPOS>SUBSTRUCTURE
     1 ZINC001122903793        1 TEMP              0 ****  ****    0 ROOT


##########                                Name:    ZINC000461336108
##########                DOCK_Rotatable_Bonds:                   5
##########                         Heavy_Atoms:                  26
##########                    Molecular_Weight:             373.522
##########                DOCK_Rotatable_Bonds:                   5
##########                       Formal_Charge:        -3.42727e-07
##########                     HBond_Acceptors:                   7
##########                        HBond_Donors:                   0
##########                         Heavy_Atoms:                  26
##########                          Grid_Score:          -28.756651
##########                     Grid_vdw_energy:          -28.830656
##########                      Grid_es_energy:            0.074005
##########           Internal_energy_repulsive:           10.642876

@<TRIPOS>MOLECULE
ZINC000461336108
 53 56 1 0 0
SMALL
USER_CHARGES


@<TRIPOS>ATOM
      1 C1        -13.8316   -1.8243   60.2807 C.3     1  ZINC000461336108   -0.1300
      2 C2        -12.9211   -2.9626   59.8155 C.3     1  ZINC000461336108    0.0700
      3 H3        -12.6848   -3.6061   60.6629 H       1  ZINC000461336108    0.0800
      4 C4        -13.6270   -3.7664   58.7605 C.2     1  ZINC000461336108    0.5300
      5 O5        -14.7986   -4.0354   58.9217 O.2     1  ZINC000461336108   -0.5300
      6 N6        -13.0178   -4.1973   57.6508 N.am    1  ZINC000461336108   -0.6100
      7 C7        -13.7849   -5.0060   56.7003 C.3     1  ZINC000461336108    0.0700
      8 C8        -11.6221   -3.8973   57.3443 C.3     1  ZINC000461336108    0.1200
      9 C9        -10.8898   -3.4558   58.6128 C.3     1  ZINC000461336108    0.0400
     10 N10       -11.6789   -2.4008   59.2683 N.3     1  ZINC000461336108   -0.4300
     11 C11       -10.9420   -1.7732   60.2600 C.2     1  ZINC000461336108    0.3300
     12 N12       -10.4131   -2.3425   61.3174 N.2     1  ZINC000461336108   -0.2500
     13 N13        -9.7973   -1.4637   62.0245 N.2     1  ZINC000461336108   -0.2800
     14 C14        -9.8960   -0.2910   61.4652 C.2     1  ZINC000461336108    0.2000
     15 C15        -9.3103    0.9976   61.9825 C.3     1  ZINC000461336108   -0.0300
     16 C16        -9.3598    1.0027   63.5115 C.3     1  ZINC000461336108   -0.0900
     17 C17        -8.1723    0.1974   64.0951 C.3     1  ZINC000461336108   -0.1200
     18 C18        -8.0220    0.7923   65.5174 C.3     1  ZINC000461336108   -0.1200
     19 C19        -8.3002    2.2979   65.3290 C.3     1  ZINC000461336108   -0.1300
     20 C20        -9.1507    2.4317   64.0538 C.3     1  ZINC000461336108   -0.1200
     21 N21       -10.6244   -0.4474   60.3185 N.pl3   1  ZINC000461336108   -0.4900
     22 C22       -10.9944    0.5939   59.3567 C.3     1  ZINC000461336108    0.1700
     23 C23        -9.9111    0.7255   58.3173 C.2     1  ZINC000461336108   -0.2400
     24 C24       -10.0916    1.1607   57.0694 C.2     1  ZINC000461336108   -0.0900
     25 C25        -8.9463    1.1967   56.2928 C.2     1  ZINC000461336108   -0.1400
     26 C26        -7.8358    0.7906   56.9101 C.2     1  ZINC000461336108   -0.2000
     27 S27        -8.2143    0.3358   58.5665 S.3     1  ZINC000461336108    0.1200
     28 H28       -14.0689   -1.1798   59.4343 H       1  ZINC000461336108    0.0800
     29 H29       -14.7522   -2.2398   60.6904 H       1  ZINC000461336108    0.0800
     30 H30       -13.3222   -1.2425   61.0489 H       1  ZINC000461336108    0.0700
     31 H31       -14.8008   -5.1381   57.0725 H       1  ZINC000461336108    0.0900
     32 H32       -13.8146   -4.5010   55.7347 H       1  ZINC000461336108    0.0700
     33 H33       -13.3100   -5.9805   56.5862 H       1  ZINC000461336108    0.0600
     34 H34       -11.1410   -4.7881   56.9404 H       1  ZINC000461336108    0.0900
     35 H35       -11.5781   -3.0978   56.6045 H       1  ZINC000461336108    0.0900
     36 H36       -10.7817   -4.3055   59.2870 H       1  ZINC000461336108    0.0500
     37 H37        -9.9058   -3.0671   58.3504 H       1  ZINC000461336108    0.1100
     38 H38        -8.2753    1.0847   61.6521 H       1  ZINC000461336108    0.0800
     39 H39        -9.8866    1.8389   61.5974 H       1  ZINC000461336108    0.1000
     40 H40       -10.3082    0.5964   63.8630 H       1  ZINC000461336108    0.0900
     41 H41        -8.4126   -0.8645   64.1440 H       1  ZINC000461336108    0.0600
     42 H42        -7.2681    0.3635   63.5094 H       1  ZINC000461336108    0.0600
     43 H43        -8.7532    0.3510   66.1946 H       1  ZINC000461336108    0.0700
     44 H44        -7.0104    0.6350   65.8916 H       1  ZINC000461336108    0.0700
     45 H45        -8.8494    2.6862   66.1867 H       1  ZINC000461336108    0.0700
     46 H46        -7.3614    2.8390   65.2102 H       1  ZINC000461336108    0.0600
     47 H47        -8.6248    3.0377   63.3160 H       1  ZINC000461336108    0.0700
     48 H48       -10.1128    2.8850   64.2925 H       1  ZINC000461336108    0.0700
     49 H49       -11.9325    0.3237   58.8717 H       1  ZINC000461336108    0.1200
     50 H50       -11.1151    1.5436   59.8779 H       1  ZINC000461336108    0.1000
     51 H51       -11.0582    1.4619   56.6934 H       1  ZINC000461336108    0.1400
     52 H52        -8.9516    1.5280   55.2650 H       1  ZINC000461336108    0.1500
     53 H53        -6.8538    0.7507   56.4624 H       1  ZINC000461336108    0.1700
@<TRIPOS>BOND
     1     1     2    1
     2     1    28    1
     3     1    29    1
     4     1    30    1
     5     2     3    1
     6     2    10    1
     7     2     4    1
     8     4     5    2
     9     4     6   am
    10     6     7    1
    11     6     8    1
    12     7    31    1
    13     7    32    1
    14     7    33    1
    15     8     9    1
    16     8    34    1
    17     8    35    1
    18     9    10    1
    19     9    36    1
    20     9    37    1
    21    10    11    1
    22    11    21    1
    23    11    12    2
    24    12    13    1
    25    13    14    2
    26    14    15    1
    27    14    21    1
    28    15    16    1
    29    15    38    1
    30    15    39    1
    31    16    20    1
    32    16    17    1
    33    16    40    1
    34    17    18    1
    35    17    41    1
    36    17    42    1
    37    18    19    1
    38    18    43    1
    39    18    44    1
    40    19    20    1
    41    19    45    1
    42    19    46    1
    43    20    47    1
    44    20    48    1
    45    21    22    1
    46    22    23    1
    47    22    49    1
    48    22    50    1
    49    23    27    1
    50    23    24    2
    51    24    25    1
    52    24    51    1
    53    25    26    2
    54    25    52    1
    55    26    27    1
    56    26    53    1
@<TRIPOS>SUBSTRUCTURE
     1 ZINC000461336108        1 TEMP              0 ****  ****    0 ROOT


##########                                Name:    ZINC000192150625
##########                DOCK_Rotatable_Bonds:                   5
##########                         Heavy_Atoms:                  28
##########                    Molecular_Weight:             377.443
##########                DOCK_Rotatable_Bonds:                   5
##########                       Formal_Charge:           0.0199997
##########                     HBond_Acceptors:                   6
##########                        HBond_Donors:                   1
##########                         Heavy_Atoms:                  28
##########                          Grid_Score:          -28.729481
##########                     Grid_vdw_energy:          -27.916147
##########                      Grid_es_energy:           -0.813334
##########           Internal_energy_repulsive:           13.574555

@<TRIPOS>MOLECULE
ZINC000192150625
 51 54 1 0 0
SMALL
USER_CHARGES


@<TRIPOS>ATOM
      1 C1         -9.0961   -0.3815   55.0307 C.3     1  ZINC000192150625   -0.0800
      2 C2         -7.9723    0.5374   54.6260 C.2     1  ZINC000192150625    0.0400
      3 C3         -7.2251    0.3953   53.5229 C.2     1  ZINC000192150625   -0.1800
      4 C4         -7.3468   -0.6860   52.4804 C.3     1  ZINC000192150625   -0.0800
      5 C5         -6.2640    1.5051   53.5339 C.ar    1  ZINC000192150625   -0.1000
      6 C6         -5.2373    1.9111   52.6839 C.ar    1  ZINC000192150625   -0.0700
      7 C7         -4.4982    3.0391   52.9966 C.ar    1  ZINC000192150625    0.1200
      8 N8         -3.4658    3.4545   52.1491 N.am    1  ZINC000192150625   -0.6400
      9 C9         -2.2021    3.5273   52.6121 C.2     1  ZINC000192150625    0.5100
     10 O10        -1.9599    3.2322   53.7643 O.2     1  ZINC000192150625   -0.4900
     11 C11        -1.0998    3.9708   51.7073 C.2     1  ZINC000192150625    0.5100
     12 O12        -0.6961    5.1142   51.7581 O.2     1  ZINC000192150625   -0.5200
     13 N13        -0.5533    3.1013   50.8345 N.am    1  ZINC000192150625   -0.5800
     14 C14        -1.0355    1.7156   50.7571 C.3     1  ZINC000192150625    0.0500
     15 C15        -1.4072    1.4032   49.3042 C.3     1  ZINC000192150625   -0.1200
     16 C16        -0.2099    1.7035   48.3996 C.3     1  ZINC000192150625   -0.0500
     17 C17        -0.5607    1.3652   46.9736 C.ar    1  ZINC000192150625   -0.0300
     18 C18        -1.8207    1.6450   46.4672 C.ar    1  ZINC000192150625   -0.1700
     19 C19        -2.1062    1.3204   45.1544 C.ar    1  ZINC000192150625    0.1000
     20 N20        -1.1971    0.7511   44.3873 N.ar    1  ZINC000192150625   -0.4900
     21 C21         0.0111    0.4706   44.8352 C.ar    1  ZINC000192150625    0.1000
     22 C22         0.3707    0.7719   46.1352 C.ar    1  ZINC000192150625   -0.1700
     23 C23         0.1465    3.1885   48.4985 C.3     1  ZINC000192150625   -0.1200
     24 C24         0.5318    3.5227   49.9380 C.3     1  ZINC000192150625    0.1100
     25 C25        -4.7813    3.7616   54.1541 C.ar    1  ZINC000192150625   -0.1100
     26 C26        -5.7950    3.3652   54.9982 C.ar    1  ZINC000192150625   -0.0800
     27 C27        -6.5471    2.2358   54.7003 C.ar    1  ZINC000192150625    0.0500
     28 O28        -7.5783    1.6214   55.3164 O.3     1  ZINC000192150625   -0.1900
     29 H29        -9.5343   -0.0300   55.9648 H       1  ZINC000192150625    0.0800
     30 H30        -9.8583   -0.3883   54.2516 H       1  ZINC000192150625    0.0900
     31 H31        -8.7084   -1.3909   55.1685 H       1  ZINC000192150625    0.0900
     32 H32        -8.0415   -0.3654   51.7039 H       1  ZINC000192150625    0.0700
     33 H33        -6.3691   -0.8755   52.0375 H       1  ZINC000192150625    0.0700
     34 H34        -7.7182   -1.5991   52.9457 H       1  ZINC000192150625    0.0700
     35 H35        -5.0194    1.3494   51.7875 H       1  ZINC000192150625    0.1400
     36 H36        -3.6593    3.6903   51.2284 H       1  ZINC000192150625    0.4300
     37 H37        -0.2496    1.0362   51.0874 H       1  ZINC000192150625    0.0700
     38 H38        -1.9135    1.5981   51.3923 H       1  ZINC000192150625    0.1600
     39 H39        -1.6753    0.3504   49.2155 H       1  ZINC000192150625    0.0800
     40 H40        -2.2537    2.0210   49.0044 H       1  ZINC000192150625    0.0700
     41 H41         0.6435    1.1036   48.7158 H       1  ZINC000192150625    0.0900
     42 H42        -2.5696    2.1105   47.0907 H       1  ZINC000192150625    0.1300
     43 H43        -3.0853    1.5351   44.7524 H       1  ZINC000192150625    0.1600
     44 H44         0.7291    0.0037   44.1774 H       1  ZINC000192150625    0.1600
     45 H45         1.3619    0.5400   46.4961 H       1  ZINC000192150625    0.1300
     46 H46         0.9845    3.4064   47.8363 H       1  ZINC000192150625    0.0800
     47 H47        -0.7146    3.7895   48.2062 H       1  ZINC000192150625    0.0700
     48 H48         0.6902    4.5969   50.0339 H       1  ZINC000192150625    0.1000
     49 H49         1.4453    2.9913   50.2046 H       1  ZINC000192150625    0.0800
     50 H50        -4.2001    4.6403   54.3917 H       1  ZINC000192150625    0.1400
     51 H51        -6.0054    3.9330   55.8925 H       1  ZINC000192150625    0.1400
@<TRIPOS>BOND
     1     1     2    1
     2     1    29    1
     3     1    30    1
     4     1    31    1
     5     2    28    1
     6     2     3    2
     7     3     4    1
     8     3     5    1
     9     4    32    1
    10     4    33    1
    11     4    34    1
    12     5    27   ar
    13     5     6   ar
    14     6     7   ar
    15     6    35    1
    16     7     8    1
    17     7    25   ar
    18     8     9   am
    19     8    36    1
    20     9    10    2
    21     9    11    1
    22    11    12    2
    23    11    13   am
    24    13    24    1
    25    13    14    1
    26    14    15    1
    27    14    37    1
    28    14    38    1
    29    15    16    1
    30    15    39    1
    31    15    40    1
    32    16    17    1
    33    16    23    1
    34    16    41    1
    35    17    22   ar
    36    17    18   ar
    37    18    19   ar
    38    18    42    1
    39    19    20   ar
    40    19    43    1
    41    20    21   ar
    42    21    22   ar
    43    21    44    1
    44    22    45    1
    45    23    24    1
    46    23    46    1
    47    23    47    1
    48    24    48    1
    49    24    49    1
    50    25    26   ar
    51    25    50    1
    52    26    27   ar
    53    26    51    1
    54    27    28    1
@<TRIPOS>SUBSTRUCTURE
     1 ZINC000192150625        1 TEMP              0 ****  ****    0 ROOT


##########                                Name:    ZINC000854704989
##########                DOCK_Rotatable_Bonds:                   5
##########                         Heavy_Atoms:                  22
##########                    Molecular_Weight:             365.227
##########                DOCK_Rotatable_Bonds:                   5
##########                       Formal_Charge:        -1.78814e-07
##########                     HBond_Acceptors:                   5
##########                        HBond_Donors:                   1
##########                         Heavy_Atoms:                  22
##########                          Grid_Score:          -28.727133
##########                     Grid_vdw_energy:          -27.768358
##########                      Grid_es_energy:           -0.958775
##########           Internal_energy_repulsive:            7.972950

@<TRIPOS>MOLECULE
ZINC000854704989
 39 41 1 0 0
SMALL
USER_CHARGES


@<TRIPOS>ATOM
      1 O1         -1.1369    2.6737   45.5918 O.2     1  ZINC000854704989   -0.5300
      2 C2         -1.3752    1.7530   46.3488 C.2     1  ZINC000854704989    0.5700
      3 N3         -1.5215    0.5036   45.8650 N.am    1  ZINC000854704989   -0.7300
      4 C4         -1.3996    0.2561   44.4263 C.3     1  ZINC000854704989    0.2000
      5 C5          0.0397    0.4161   44.0092 C.2     1  ZINC000854704989   -0.0500
      6 C6          0.6509   -0.1835   42.9601 C.2     1  ZINC000854704989   -0.1700
      7 C7          1.9789    0.3011   43.0156 C.2     1  ZINC000854704989    0.0000
      8 Br8         3.3929   -0.1301   41.8364 Br      1  ZINC000854704989    0.0600
      9 N9          2.0342    1.1038   44.0401 N.2     1  ZINC000854704989   -0.3200
     10 O10         0.9656    1.1844   44.6002 O.3     1  ZINC000854704989    0.1300
     11 C11        -1.4982    2.0027   47.8008 C.ar    1  ZINC000854704989   -0.1300
     12 C12        -0.3581    2.0394   48.6048 C.ar    1  ZINC000854704989   -0.0900
     13 C13        -0.4799    2.2733   49.9590 C.ar    1  ZINC000854704989   -0.1200
     14 C14        -1.7288    2.4706   50.5204 C.ar    1  ZINC000854704989   -0.0900
     15 C15        -2.8634    2.4354   49.7288 C.ar    1  ZINC000854704989   -0.0800
     16 C16        -4.2198    2.6515   50.3490 C.3     1  ZINC000854704989   -0.0800
     17 H17        -4.1018    2.9155   51.3999 H       1  ZINC000854704989    0.0900
     18 C18        -5.0461    1.3669   50.2334 C.3     1  ZINC000854704989   -0.1100
     19 C19        -6.4477    1.6221   50.7963 C.3     1  ZINC000854704989   -0.1600
     20 C20        -7.0857    2.7930   50.0442 C.3     1  ZINC000854704989    0.0600
     21 O21        -6.2517    3.9469   50.1663 O.3     1  ZINC000854704989   -0.3800
     22 C22        -4.9433    3.7837   49.6152 C.3     1  ZINC000854704989    0.0700
     23 C23        -2.7550    2.2082   48.3727 C.ar    1  ZINC000854704989   -0.0500
     24 H24        -1.7077   -0.2318   46.4696 H       1  ZINC000854704989    0.4000
     25 H25        -1.7322   -0.7574   44.2024 H       1  ZINC000854704989    0.1100
     26 H26        -2.0172    0.9699   43.8813 H       1  ZINC000854704989    0.1000
     27 H27         0.2237   -0.8724   42.2464 H       1  ZINC000854704989    0.1900
     28 H28         0.6174    1.8849   48.1678 H       1  ZINC000854704989    0.1200
     29 H29         0.4016    2.3021   50.5823 H       1  ZINC000854704989    0.1300
     30 H30        -1.8188    2.6527   51.5812 H       1  ZINC000854704989    0.1300
     31 H31        -5.1214    1.0747   49.1860 H       1  ZINC000854704989    0.0700
     32 H32        -4.5644    0.5711   50.8015 H       1  ZINC000854704989    0.0700
     33 H33        -7.0599    0.7295   50.6676 H       1  ZINC000854704989    0.0800
     34 H34        -6.3756    1.8658   51.8562 H       1  ZINC000854704989    0.0700
     35 H35        -7.1944    2.5327   48.9913 H       1  ZINC000854704989    0.0500
     36 H36        -8.0665    3.0067   50.4691 H       1  ZINC000854704989    0.1000
     37 H37        -4.3819    4.7108   49.7308 H       1  ZINC000854704989    0.1000
     38 H38        -5.0229    3.5363   48.5566 H       1  ZINC000854704989    0.0500
     39 H39        -3.6412    2.1814   47.7559 H       1  ZINC000854704989    0.1400
@<TRIPOS>BOND
     1     1     2    2
     2     2     3   am
     3     2    11    1
     4     3     4    1
     5     3    24    1
     6     4     5    1
     7     4    25    1
     8     4    26    1
     9     5    10    1
    10     5     6    2
    11     6     7    1
    12     6    27    1
    13     7     8    1
    14     7     9    2
    15     9    10    1
    16    11    23   ar
    17    11    12   ar
    18    12    13   ar
    19    12    28    1
    20    13    14   ar
    21    13    29    1
    22    14    15   ar
    23    14    30    1
    24    15    16    1
    25    15    23   ar
    26    16    17    1
    27    16    22    1
    28    16    18    1
    29    18    19    1
    30    18    31    1
    31    18    32    1
    32    19    20    1
    33    19    33    1
    34    19    34    1
    35    20    21    1
    36    20    35    1
    37    20    36    1
    38    21    22    1
    39    22    37    1
    40    22    38    1
    41    23    39    1
@<TRIPOS>SUBSTRUCTURE
     1 ZINC000854704989        1 TEMP              0 ****  ****    0 ROOT


##########                                Name:    ZINC000281257088
##########                DOCK_Rotatable_Bonds:                   8
##########                         Heavy_Atoms:                  27
##########                    Molecular_Weight:             395.541
##########                DOCK_Rotatable_Bonds:                   8
##########                       Formal_Charge:          -0.0200005
##########                     HBond_Acceptors:                   7
##########                        HBond_Donors:                   1
##########                         Heavy_Atoms:                  27
##########                          Grid_Score:          -28.713243
##########                     Grid_vdw_energy:          -28.584501
##########                      Grid_es_energy:           -0.128742
##########           Internal_energy_repulsive:           23.378950

@<TRIPOS>MOLECULE
ZINC000281257088
 57 58 1 0 0
SMALL
USER_CHARGES


@<TRIPOS>ATOM
      1 C1        -10.8381   -4.6014   57.9706 C.3     1  ZINC000281257088   -0.0700
      2 C2        -10.5502   -3.1547   57.6620 C.2     1  ZINC000281257088    0.1000
      3 N3        -10.0333   -2.6954   56.5513 N.2     1  ZINC000281257088   -0.3000
      4 N4         -9.9275   -1.3028   56.6609 N.pl3   1  ZINC000281257088   -0.3700
      5 C5         -9.3992   -0.3956   55.6390 C.3     1  ZINC000281257088    0.1500
      6 C6         -9.6002   -1.0146   54.2543 C.3     1  ZINC000281257088   -0.6400
      7 S7         -9.1230    0.1855   52.9805 S.o2    1  ZINC000281257088    2.4300
      8 C8        -10.7365    0.7314   52.3567 C.3     1  ZINC000281257088   -0.6500
      9 O9         -8.4857    1.2872   53.6124 O.2     1  ZINC000281257088   -0.9300
     10 O10        -8.4451   -0.5045   51.9396 O.2     1  ZINC000281257088   -0.9300
     11 C11       -10.3981   -0.9447   57.8738 C.2     1  ZINC000281257088    0.0900
     12 C12       -10.4740    0.4584   58.4185 C.3     1  ZINC000281257088   -0.1000
     13 C13       -10.7949   -2.0705   58.5111 C.2     1  ZINC000281257088   -0.2300
     14 C14       -11.3874   -2.1440   59.8948 C.3     1  ZINC000281257088    0.1400
     15 N15       -12.7514   -2.6834   59.8154 N.3     1  ZINC000281257088   -0.6700
     16 C16       -13.7243   -1.6168   59.5438 C.3     1  ZINC000281257088    0.1400
     17 H17       -13.2481   -0.8315   58.9566 H       1  ZINC000281257088    0.0500
     18 C18       -14.2160   -1.0414   60.8470 C.ar    1  ZINC000281257088   -0.0800
     19 C19       -14.4930    0.3094   60.9447 C.ar    1  ZINC000281257088   -0.0600
     20 C20       -14.9439    0.8382   62.1393 C.ar    1  ZINC000281257088   -0.1600
     21 C21       -15.1187    0.0144   63.2383 C.ar    1  ZINC000281257088    0.1000
     22 F22       -15.5599    0.5301   64.4064 F       1  ZINC000281257088   -0.1400
     23 C23       -14.8414   -1.3385   63.1391 C.ar    1  ZINC000281257088   -0.1600
     24 C24       -14.3952   -1.8658   61.9422 C.ar    1  ZINC000281257088   -0.0900
     25 C25       -14.9070   -2.1922   58.7620 C.3     1  ZINC000281257088   -0.0600
     26 C26       -16.1109   -1.2578   58.8975 C.3     1  ZINC000281257088   -0.1400
     27 C27       -14.5270   -2.3236   57.2857 C.3     1  ZINC000281257088   -0.1400
     28 C28       -15.2657   -3.5705   59.3210 C.3     1  ZINC000281257088   -0.1500
     29 H29       -11.8483   -4.8484   57.6441 H       1  ZINC000281257088    0.0800
     30 H30       -10.1218   -5.2343   57.4467 H       1  ZINC000281257088    0.0700
     31 H31       -10.7524   -4.7678   59.0444 H       1  ZINC000281257088    0.0800
     32 H32        -9.9266    0.5569   55.6912 H       1  ZINC000281257088    0.1100
     33 H33        -8.3357   -0.2321   55.8131 H       1  ZINC000281257088    0.1100
     34 H34        -8.9818   -1.9074   54.1622 H       1  ZINC000281257088    0.1400
     35 H35       -10.6485   -1.2839   54.1253 H       1  ZINC000281257088    0.1400
     36 H36       -11.3091    1.1763   53.1704 H       1  ZINC000281257088    0.1300
     37 H37       -10.5904    1.4703   51.5687 H       1  ZINC000281257088    0.1300
     38 H38       -11.2797   -0.1245   51.9559 H       1  ZINC000281257088    0.1300
     39 H39       -11.4348    0.8996   58.1534 H       1  ZINC000281257088    0.0800
     40 H40       -10.3730    0.4328   59.5035 H       1  ZINC000281257088    0.0900
     41 H41        -9.6691    1.0575   57.9927 H       1  ZINC000281257088    0.0700
     42 H42       -10.7749   -2.7955   60.5182 H       1  ZINC000281257088    0.0800
     43 H43       -11.4163   -1.1457   60.3312 H       1  ZINC000281257088    0.0300
     44 H44       -12.8119   -3.4133   59.1213 H       1  ZINC000281257088    0.3400
     45 H45       -14.3566    0.9518   60.0873 H       1  ZINC000281257088    0.1400
     46 H46       -15.1596    1.8937   62.2156 H       1  ZINC000281257088    0.1300
     47 H47       -14.9771   -1.9819   63.9958 H       1  ZINC000281257088    0.1300
     48 H48       -14.1791   -2.9212   61.8644 H       1  ZINC000281257088    0.1300
     49 H49       -15.8553   -0.2759   58.4993 H       1  ZINC000281257088    0.0600
     50 H50       -16.9534   -1.6677   58.3405 H       1  ZINC000281257088    0.0500
     51 H51       -16.3816   -1.1642   59.9492 H       1  ZINC000281257088    0.0600
     52 H52       -13.6693   -2.9892   57.1893 H       1  ZINC000281257088    0.0500
     53 H53       -15.3695   -2.7335   56.7288 H       1  ZINC000281257088    0.0600
     54 H54       -14.2714   -1.3416   56.8876 H       1  ZINC000281257088    0.0600
     55 H55       -15.6109   -3.4668   60.3496 H       1  ZINC000281257088    0.0500
     56 H56       -16.0562   -4.0137   58.7153 H       1  ZINC000281257088    0.0600
     57 H57       -14.3854   -4.2129   59.2961 H       1  ZINC000281257088    0.0600
@<TRIPOS>BOND
     1     1     2    1
     2     1    29    1
     3     1    30    1
     4     1    31    1
     5     2    13    1
     6     2     3    2
     7     3     4    1
     8     4     5    1
     9     4    11    1
    10     5     6    1
    11     5    32    1
    12     5    33    1
    13     6     7    1
    14     6    34    1
    15     6    35    1
    16     7     8    1
    17     7     9    2
    18     7    10    2
    19     8    36    1
    20     8    37    1
    21     8    38    1
    22    11    12    1
    23    11    13    2
    24    12    39    1
    25    12    40    1
    26    12    41    1
    27    13    14    1
    28    14    15    1
    29    14    42    1
    30    14    43    1
    31    15    16    1
    32    15    44    1
    33    16    17    1
    34    16    18    1
    35    16    25    1
    36    18    24   ar
    37    18    19   ar
    38    19    20   ar
    39    19    45    1
    40    20    21   ar
    41    20    46    1
    42    21    22    1
    43    21    23   ar
    44    23    24   ar
    45    23    47    1
    46    24    48    1
    47    25    26    1
    48    25    27    1
    49    25    28    1
    50    26    49    1
    51    26    50    1
    52    26    51    1
    53    27    52    1
    54    27    53    1
    55    27    54    1
    56    28    55    1
    57    28    56    1
    58    28    57    1
@<TRIPOS>SUBSTRUCTURE
     1 ZINC000281257088        1 TEMP              0 ****  ****    0 ROOT


##########                                Name:    ZINC001162683355
##########                DOCK_Rotatable_Bonds:                   5
##########                         Heavy_Atoms:                  25
##########                    Molecular_Weight:             336.437
##########                DOCK_Rotatable_Bonds:                   5
##########                       Formal_Charge:          -0.0100002
##########                     HBond_Acceptors:                   5
##########                        HBond_Donors:                   1
##########                         Heavy_Atoms:                  25
##########                          Grid_Score:          -28.680597
##########                     Grid_vdw_energy:          -28.115013
##########                      Grid_es_energy:           -0.565584
##########           Internal_energy_repulsive:            6.810094

@<TRIPOS>MOLECULE
ZINC001162683355
 49 52 1 0 0
SMALL
USER_CHARGES


@<TRIPOS>ATOM
      1 C1         -7.3085    1.0178   55.6547 C.3     1  ZINC001162683355    0.0200
      2 N2         -8.1709    0.1807   54.8100 N.3     1  ZINC001162683355   -0.5400
      3 C3         -8.5499    0.8891   53.5788 C.3     1  ZINC001162683355    0.0100
      4 C4         -9.3964   -0.0384   52.7028 C.3     1  ZINC001162683355    0.0600
      5 O5        -10.5357   -0.4795   53.4463 O.3     1  ZINC001162683355   -0.3800
      6 C6        -10.2030   -1.1740   54.6515 C.3     1  ZINC001162683355    0.0800
      7 H7         -9.6312   -2.0699   54.4093 H       1  ZINC001162683355    0.0700
      8 C8        -11.4866   -1.5697   55.3841 C.3     1  ZINC001162683355    0.1500
      9 N9        -11.1833   -2.6030   56.3773 N.pl3   1  ZINC001162683355   -0.7300
     10 C10       -12.2055   -3.1525   57.1432 C.ar    1  ZINC001162683355    0.4300
     11 C11       -12.3012   -2.8442   58.5023 C.ar    1  ZINC001162683355   -0.0100
     12 C12       -13.3478   -3.4173   59.2476 C.ar    1  ZINC001162683355   -0.0400
     13 C13       -14.2485   -4.2712   58.5969 C.ar    1  ZINC001162683355   -0.1800
     14 C14       -14.0786   -4.5164   57.2654 C.ar    1  ZINC001162683355    0.1000
     15 N15       -13.0858   -3.9659   56.5835 N.ar    1  ZINC001162683355   -0.5400
     16 C16       -13.1938   -2.9207   60.6117 C.2     1  ZINC001162683355   -0.2200
     17 C17       -12.1136   -2.1193   60.6181 C.2     1  ZINC001162683355    0.0800
     18 N18       -11.5723   -2.0585   59.3656 N.pl3   1  ZINC001162683355   -0.4600
     19 C19       -10.3883   -1.2781   58.9974 C.3     1  ZINC001162683355    0.1500
     20 C20        -9.8620   -0.5599   60.2133 C.ar    1  ZINC001162683355   -0.1100
     21 C21        -8.9960   -1.2052   61.0761 C.ar    1  ZINC001162683355   -0.1000
     22 C22        -8.5097   -0.5449   62.1890 C.ar    1  ZINC001162683355   -0.1200
     23 C23        -8.8969    0.7573   62.4441 C.ar    1  ZINC001162683355   -0.1100
     24 C24        -9.7670    1.4008   61.5841 C.ar    1  ZINC001162683355   -0.1200
     25 C25       -10.2498    0.7420   60.4688 C.ar    1  ZINC001162683355   -0.1000
     26 C26        -9.3646   -0.2581   55.5472 C.3     1  ZINC001162683355    0.0300
     27 H27        -7.8643    1.8959   55.9836 H       1  ZINC001162683355    0.0300
     28 H28        -6.9858    0.4454   56.5243 H       1  ZINC001162683355    0.0700
     29 H29        -6.4357    1.3332   55.0831 H       1  ZINC001162683355    0.0700
     30 H30        -7.6513    1.1822   53.0362 H       1  ZINC001162683355    0.0900
     31 H31        -9.1282    1.7773   53.8333 H       1  ZINC001162683355    0.0500
     32 H32        -8.8005   -0.9008   52.4040 H       1  ZINC001162683355    0.0600
     33 H33        -9.7275    0.5005   51.8150 H       1  ZINC001162683355    0.1000
     34 H34       -12.2099   -1.9567   54.6664 H       1  ZINC001162683355    0.0700
     35 H35       -11.9034   -0.6957   55.8846 H       1  ZINC001162683355    0.0800
     36 H36       -10.2694   -2.9037   56.5006 H       1  ZINC001162683355    0.4000
     37 H37       -15.0632   -4.7271   59.1398 H       1  ZINC001162683355    0.1300
     38 H38       -14.7688   -5.1731   56.7567 H       1  ZINC001162683355    0.1500
     39 H39       -13.8245   -3.1558   61.4563 H       1  ZINC001162683355    0.1500
     40 H40       -11.7323   -1.5993   61.4844 H       1  ZINC001162683355    0.1700
     41 H41       -10.6570   -0.5492   58.2328 H       1  ZINC001162683355    0.0900
     42 H42        -9.6196   -1.9459   58.6087 H       1  ZINC001162683355    0.0900
     43 H43        -8.6965   -2.2239   60.8789 H       1  ZINC001162683355    0.1200
     44 H44        -7.8296   -1.0475   62.8608 H       1  ZINC001162683355    0.1300
     45 H45        -8.5190    1.2722   63.3150 H       1  ZINC001162683355    0.1300
     46 H46       -10.0694    2.4182   61.7833 H       1  ZINC001162683355    0.1300
     47 H47       -10.9297    1.2447   59.7969 H       1  ZINC001162683355    0.1200
     48 H48        -9.9560    0.6118   55.8332 H       1  ZINC001162683355    0.0500
     49 H49        -9.0607   -0.8023   56.4413 H       1  ZINC001162683355    0.0900
@<TRIPOS>BOND
     1     1     2    1
     2     1    27    1
     3     1    28    1
     4     1    29    1
     5     2    26    1
     6     2     3    1
     7     3     4    1
     8     3    30    1
     9     3    31    1
    10     4     5    1
    11     4    32    1
    12     4    33    1
    13     5     6    1
    14     6     7    1
    15     6     8    1
    16     6    26    1
    17     8     9    1
    18     8    34    1
    19     8    35    1
    20     9    10    1
    21     9    36    1
    22    10    15   ar
    23    10    11   ar
    24    11    18    1
    25    11    12   ar
    26    12    13   ar
    27    12    16    1
    28    13    14   ar
    29    13    37    1
    30    14    15   ar
    31    14    38    1
    32    16    17    2
    33    16    39    1
    34    17    18    1
    35    17    40    1
    36    18    19    1
    37    19    20    1
    38    19    41    1
    39    19    42    1
    40    20    25   ar
    41    20    21   ar
    42    21    22   ar
    43    21    43    1
    44    22    23   ar
    45    22    44    1
    46    23    24   ar
    47    23    45    1
    48    24    25   ar
    49    24    46    1
    50    25    47    1
    51    26    48    1
    52    26    49    1
@<TRIPOS>SUBSTRUCTURE
     1 ZINC001162683355        1 TEMP              0 ****  ****    0 ROOT


##########                                Name:    ZINC001362451754
##########                DOCK_Rotatable_Bonds:                   6
##########                         Heavy_Atoms:                  22
##########                    Molecular_Weight:             339.846
##########                DOCK_Rotatable_Bonds:                   6
##########                       Formal_Charge:         -0.00999987
##########                     HBond_Acceptors:                   7
##########                        HBond_Donors:                   1
##########                         Heavy_Atoms:                  22
##########                          Grid_Score:          -28.671736
##########                     Grid_vdw_energy:          -28.296402
##########                      Grid_es_energy:           -0.375334
##########           Internal_energy_repulsive:           16.479422

@<TRIPOS>MOLECULE
ZINC001362451754
 40 42 1 0 0
SMALL
USER_CHARGES


@<TRIPOS>ATOM
      1 C1         -6.3243    0.9492   50.0790 C.3     1  ZINC001362451754   -0.1700
      2 C2         -5.8820    1.3707   51.4818 C.3     1  ZINC001362451754    0.1400
      3 H3         -4.9694    0.8431   51.7592 H       1  ZINC001362451754    0.0800
      4 C4         -5.6396    2.8943   51.5200 C.3     1  ZINC001362451754   -0.1000
      5 H5         -4.8045    3.1355   52.1777 H       1  ZINC001362451754    0.1000
      6 C6         -5.3960    3.4392   50.1112 C.3     1  ZINC001362451754    0.0900
      7 O7         -5.1043    4.8362   50.1846 O.3     1  ZINC001362451754   -0.5700
      8 C8         -6.9703    3.4435   52.0985 C.3     1  ZINC001362451754   -0.1200
      9 C9         -7.3586    2.3312   53.1010 C.3     1  ZINC001362451754    0.0900
     10 N10        -6.9459    1.0735   52.4520 N.am    1  ZINC001362451754   -0.6100
     11 C11        -7.4625   -0.1460   52.7022 C.2     1  ZINC001362451754    0.6100
     12 O12        -7.0430   -1.1190   52.1037 O.2     1  ZINC001362451754   -0.5200
     13 C13        -8.5297   -0.3000   53.6952 C.2     1  ZINC001362451754   -0.2500
     14 C14        -8.4211   -0.0123   55.0267 C.2     1  ZINC001362451754   -0.0500
     15 C15        -9.5760   -0.2559   55.7315 C.2     1  ZINC001362451754   -0.1100
     16 C16       -10.5992   -0.7170   55.0027 C.2     1  ZINC001362451754   -0.2500
     17 C17       -11.9605   -1.0502   55.5566 C.3     1  ZINC001362451754    0.2100
     18 N18       -11.9265   -2.3810   56.1684 N.pl3   1  ZINC001362451754   -0.3700
     19 C19       -10.8569   -2.9574   56.7576 C.2     1  ZINC001362451754    0.0700
     20 C20       -11.2374   -4.1800   57.1971 C.2     1  ZINC001362451754   -0.1800
     21 Cl21      -10.2323   -5.3248   58.0296 Cl      1  ZINC001362451754   -0.0400
     22 C22       -12.5826   -4.3601   56.8564 C.2     1  ZINC001362451754    0.0700
     23 N23       -12.9962   -3.2827   56.2400 N.2     1  ZINC001362451754   -0.2700
     24 S24       -10.1545   -0.8851   53.3641 S.3     1  ZINC001362451754    0.2300
     25 H25        -7.2403    1.4768   49.8130 H       1  ZINC001362451754    0.0600
     26 H26        -5.5415    1.1959   49.3618 H       1  ZINC001362451754    0.0700
     27 H27        -6.5062   -0.1254   50.0630 H       1  ZINC001362451754    0.0700
     28 H28        -4.5536    2.9153   49.6596 H       1  ZINC001362451754    0.0500
     29 H29        -6.2876    3.2857   49.5031 H       1  ZINC001362451754    0.0500
     30 H30        -5.0640    5.1827   51.0865 H       1  ZINC001362451754    0.3800
     31 H31        -6.8119    4.3937   52.6086 H       1  ZINC001362451754    0.0900
     32 H32        -7.7245    3.5425   51.3177 H       1  ZINC001362451754    0.0800
     33 H33        -8.4349    2.3339   53.2732 H       1  ZINC001362451754    0.0800
     34 H34        -6.8229    2.4667   54.0406 H       1  ZINC001362451754    0.0800
     35 H35        -7.5167    0.3647   55.4809 H       1  ZINC001362451754    0.1600
     36 H36        -9.6530   -0.0842   56.7950 H       1  ZINC001362451754    0.1500
     37 H37       -12.2375   -0.3116   56.3089 H       1  ZINC001362451754    0.1100
     38 H38       -12.6935   -1.0398   54.7500 H       1  ZINC001362451754    0.1100
     39 H39        -9.8747   -2.5205   56.8617 H       1  ZINC001362451754    0.1800
     40 H40       -13.1768   -5.2374   57.0659 H       1  ZINC001362451754    0.1900
@<TRIPOS>BOND
     1     1     2    1
     2     1    25    1
     3     1    26    1
     4     1    27    1
     5     2     3    1
     6     2    10    1
     7     2     4    1
     8     4     5    1
     9     4     6    1
    10     4     8    1
    11     6     7    1
    12     6    28    1
    13     6    29    1
    14     7    30    1
    15     8     9    1
    16     8    31    1
    17     8    32    1
    18     9    10    1
    19     9    33    1
    20     9    34    1
    21    10    11   am
    22    11    12    2
    23    11    13    1
    24    13    24    1
    25    13    14    2
    26    14    15    1
    27    14    35    1
    28    15    16    2
    29    15    36    1
    30    16    17    1
    31    16    24    1
    32    17    18    1
    33    17    37    1
    34    17    38    1
    35    18    23    1
    36    18    19    1
    37    19    20    2
    38    19    39    1
    39    20    21    1
    40    20    22    1
    41    22    23    2
    42    22    40    1
@<TRIPOS>SUBSTRUCTURE
     1 ZINC001362451754        1 TEMP              0 ****  ****    0 ROOT


##########                                Name:    ZINC000560467340
##########                DOCK_Rotatable_Bonds:                   7
##########                         Heavy_Atoms:                  24
##########                    Molecular_Weight:             369.481
##########                DOCK_Rotatable_Bonds:                   7
##########                       Formal_Charge:          -0.0199997
##########                     HBond_Acceptors:                   7
##########                        HBond_Donors:                   2
##########                         Heavy_Atoms:                  24
##########                          Grid_Score:          -28.668848
##########                     Grid_vdw_energy:          -27.190361
##########                      Grid_es_energy:           -1.478487
##########           Internal_energy_repulsive:           26.583185

@<TRIPOS>MOLECULE
ZINC000560467340
 44 46 1 0 0
SMALL
USER_CHARGES


@<TRIPOS>ATOM
      1 O1         -2.9564    2.6669   46.4594 O.2     1  ZINC000560467340   -0.9600
      2 S2         -2.0887    2.0607   47.4075 S.o2    1  ZINC000560467340    2.7100
      3 O3         -0.8395    2.6211   47.7877 O.2     1  ZINC000560467340   -0.9500
      4 N4         -2.9668    1.8869   48.8008 N.am    1  ZINC000560467340   -1.0900
      5 C5         -3.4063    3.0715   49.5422 C.3     1  ZINC000560467340    0.1400
      6 C6         -4.6812    2.7417   50.3212 C.3     1  ZINC000560467340   -0.0500
      7 C7         -4.3963    1.6493   51.3537 C.3     1  ZINC000560467340   -0.0700
      8 C8         -5.6988    1.0955   51.8714 C.ar    1  ZINC000560467340   -0.0900
      9 C9         -6.2531   -0.0276   51.2862 C.ar    1  ZINC000560467340   -0.0900
     10 C10        -7.4474   -0.5363   51.7601 C.ar    1  ZINC000560467340   -0.1500
     11 C11        -8.0887    0.0791   52.8219 C.ar    1  ZINC000560467340    0.1000
     12 F12        -9.2560   -0.4176   53.2863 F       1  ZINC000560467340   -0.1400
     13 C13        -7.5323    1.2036   53.4075 C.ar    1  ZINC000560467340   -0.1500
     14 C14        -6.3354    1.7077   52.9349 C.ar    1  ZINC000560467340   -0.0900
     15 C15        -5.7879    2.2782   49.3515 C.3     1  ZINC000560467340   -0.1300
     16 C16        -7.0874    2.8779   49.9438 C.3     1  ZINC000560467340   -0.1200
     17 C17        -6.6223    4.2642   50.4547 C.3     1  ZINC000560467340   -0.1600
     18 C18        -5.2117    4.0044   51.0225 C.3     1  ZINC000560467340    0.1100
     19 H19        -5.2671    3.8385   52.0984 H       1  ZINC000560467340    0.0600
     20 O20        -4.3588    5.1162   50.7422 O.3     1  ZINC000560467340   -0.5500
     21 C21        -1.7444    0.4419   46.8027 C.2     1  ZINC000560467340   -0.6900
     22 C22        -1.6129   -0.6124   47.6092 C.2     1  ZINC000560467340   -0.1000
     23 S23        -1.2748   -2.0488   46.6522 S.3     1  ZINC000560467340    0.1500
     24 C24        -1.3328   -1.1089   45.1666 C.2     1  ZINC000560467340   -0.2200
     25 C25        -1.5956    0.1668   45.4543 C.2     1  ZINC000560467340   -0.0700
     26 H26        -3.1901    1.0008   49.1259 H       1  ZINC000560467340    0.4200
     27 H27        -2.6240    3.3758   50.2376 H       1  ZINC000560467340    0.0600
     28 H28        -3.6072    3.8836   48.8434 H       1  ZINC000560467340    0.0800
     29 H29        -3.8212    0.8494   50.8872 H       1  ZINC000560467340    0.0800
     30 H30        -3.8265    2.0714   52.1814 H       1  ZINC000560467340    0.0800
     31 H31        -5.7527   -0.5074   50.4581 H       1  ZINC000560467340    0.1300
     32 H32        -7.8807   -1.4133   51.3023 H       1  ZINC000560467340    0.1400
     33 H33        -8.0318    1.6847   54.2355 H       1  ZINC000560467340    0.1400
     34 H34        -5.9011    2.5847   53.3919 H       1  ZINC000560467340    0.1300
     35 H35        -5.6078    2.6716   48.3510 H       1  ZINC000560467340    0.0700
     36 H36        -5.8451    1.1900   49.3300 H       1  ZINC000560467340    0.0800
     37 H37        -7.8496    2.9862   49.1722 H       1  ZINC000560467340    0.0700
     38 H38        -7.4546    2.2660   50.7677 H       1  ZINC000560467340    0.0700
     39 H39        -6.5770    4.9781   49.6323 H       1  ZINC000560467340    0.0800
     40 H40        -7.2885    4.6252   51.2382 H       1  ZINC000560467340    0.0700
     41 H41        -4.3546    5.3843   49.8132 H       1  ZINC000560467340    0.3800
     42 H42        -1.7002   -0.5877   48.6854 H       1  ZINC000560467340    0.1800
     43 H43        -1.1832   -1.5050   44.1731 H       1  ZINC000560467340    0.1700
     44 H44        -1.6782    0.9288   44.6934 H       1  ZINC000560467340    0.1500
@<TRIPOS>BOND
     1     1     2    2
     2     2     3    2
     3     2     4   am
     4     2    21    1
     5     4     5    1
     6     4    26    1
     7     5     6    1
     8     5    27    1
     9     5    28    1
    10     6    18    1
    11     6     7    1
    12     6    15    1
    13     7     8    1
    14     7    29    1
    15     7    30    1
    16     8    14   ar
    17     8     9   ar
    18     9    10   ar
    19     9    31    1
    20    10    11   ar
    21    10    32    1
    22    11    12    1
    23    11    13   ar
    24    13    14   ar
    25    13    33    1
    26    14    34    1
    27    15    16    1
    28    15    35    1
    29    15    36    1
    30    16    17    1
    31    16    37    1
    32    16    38    1
    33    17    18    1
    34    17    39    1
    35    17    40    1
    36    18    19    1
    37    18    20    1
    38    20    41    1
    39    21    25    1
    40    21    22    2
    41    22    23    1
    42    22    42    1
    43    23    24    1
    44    24    25    2
    45    24    43    1
    46    25    44    1
@<TRIPOS>SUBSTRUCTURE
     1 ZINC000560467340        1 TEMP              0 ****  ****    0 ROOT


##########                                Name:    ZINC000074782190
##########                DOCK_Rotatable_Bonds:                   9
##########                         Heavy_Atoms:                  25
##########                    Molecular_Weight:             341.453
##########                DOCK_Rotatable_Bonds:                   9
##########                       Formal_Charge:          -0.0200006
##########                     HBond_Acceptors:                   5
##########                        HBond_Donors:                   1
##########                         Heavy_Atoms:                  25
##########                          Grid_Score:          -28.650530
##########                     Grid_vdw_energy:          -27.226423
##########                      Grid_es_energy:           -1.424106
##########           Internal_energy_repulsive:           32.529469

@<TRIPOS>MOLECULE
ZINC000074782190
 52 53 1 0 0
SMALL
USER_CHARGES


@<TRIPOS>ATOM
      1 C1         -4.3486    5.6878   51.1217 C.3     1  ZINC000074782190   -0.1100
      2 C2         -5.4831    4.8959   50.5242 C.ar    1  ZINC000074782190   -0.1200
      3 C3         -6.6504    5.5336   50.1522 C.ar    1  ZINC000074782190   -0.0800
      4 C4         -7.6920    4.8074   49.6044 C.ar    1  ZINC000074782190   -0.1500
      5 C5         -7.5677    3.4420   49.4273 C.ar    1  ZINC000074782190   -0.0900
      6 C6         -6.4019    2.7995   49.7974 C.ar    1  ZINC000074782190   -0.2100
      7 C7         -5.3537    3.5265   50.3422 C.ar    1  ZINC000074782190    0.1300
      8 O8         -4.2059    2.8968   50.7072 O.3     1  ZINC000074782190   -0.3000
      9 C9         -3.7174    1.8792   49.8309 C.3     1  ZINC000074782190    0.0700
     10 H10        -4.4836    1.1153   49.6985 H       1  ZINC000074782190    0.0800
     11 C11        -2.4634    1.2444   50.4353 C.3     1  ZINC000074782190   -0.1800
     12 C12        -3.3731    2.4967   48.4741 C.3     1  ZINC000074782190    0.1400
     13 N13        -2.2653    1.7550   47.8670 N.am    1  ZINC000074782190   -0.7500
     14 C14        -2.1159    1.7435   46.5275 C.2     1  ZINC000074782190    0.7100
     15 O15        -2.9006    2.3487   45.8231 O.2     1  ZINC000074782190   -0.5900
     16 N16        -1.0966    1.0612   45.9690 N.am    1  ZINC000074782190   -0.6200
     17 C17        -0.1511    0.3320   46.8177 C.3     1  ZINC000074782190    0.1800
     18 C18         0.8888    1.2862   47.3462 C.ar    1  ZINC000074782190   -0.1600
     19 C19         2.1741    0.8436   47.6178 C.ar    1  ZINC000074782190   -0.0500
     20 C20         3.0982    1.7571   48.1022 C.ar    1  ZINC000074782190   -0.1800
     21 C21         2.7098    3.0690   48.2967 C.ar    1  ZINC000074782190    0.1000
     22 N22         1.4778    3.4547   48.0274 N.ar    1  ZINC000074782190   -0.4900
     23 C23         0.5747    2.6151   47.5608 C.ar    1  ZINC000074782190    0.1100
     24 C24        -0.9342    1.0487   44.5130 C.3     1  ZINC000074782190    0.1300
     25 C25         0.5475    1.2020   44.1638 C.3     1  ZINC000074782190   -0.1800
     26 C26        -1.4557   -0.2762   43.9531 C.3     1  ZINC000074782190   -0.1800
     27 H27        -3.6924    6.0398   50.3256 H       1  ZINC000074782190    0.0700
     28 H28        -4.7495    6.5425   51.6667 H       1  ZINC000074782190    0.0600
     29 H29        -3.7832    5.0540   51.8048 H       1  ZINC000074782190    0.0700
     30 H30        -6.7499    6.6002   50.2895 H       1  ZINC000074782190    0.1300
     31 H31        -8.6042    5.3078   49.3148 H       1  ZINC000074782190    0.1200
     32 H32        -8.3828    2.8770   48.9996 H       1  ZINC000074782190    0.1200
     33 H33        -6.3054    1.7328   49.6592 H       1  ZINC000074782190    0.1300
     34 H34        -1.6973    2.0083   50.5678 H       1  ZINC000074782190    0.0700
     35 H35        -2.7088    0.8044   51.4020 H       1  ZINC000074782190    0.0700
     36 H36        -2.0909    0.4682   49.7669 H       1  ZINC000074782190    0.0800
     37 H37        -4.2444    2.4475   47.8210 H       1  ZINC000074782190    0.0800
     38 H38        -3.0810    3.5378   48.6123 H       1  ZINC000074782190    0.0900
     39 H39        -1.6391    1.2723   48.4290 H       1  ZINC000074782190    0.4100
     40 H40        -0.6864   -0.1207   47.6523 H       1  ZINC000074782190    0.0900
     41 H41         0.3358   -0.4481   46.2324 H       1  ZINC000074782190    0.1000
     42 H42         2.4492   -0.1882   47.4562 H       1  ZINC000074782190    0.1400
     43 H43         4.1084    1.4471   48.3250 H       1  ZINC000074782190    0.1300
     44 H44         3.4234    3.7864   48.6741 H       1  ZINC000074782190    0.1600
     45 H45        -0.4246    2.9678   47.3518 H       1  ZINC000074782190    0.1500
     46 H46        -1.4975    1.8740   44.0776 H       1  ZINC000074782190    0.1000
     47 H47         1.0970    0.3313   44.5214 H       1  ZINC000074782190    0.0600
     48 H48         0.6595    1.2836   43.0826 H       1  ZINC000074782190    0.0700
     49 H49         0.9415    2.1006   44.6387 H       1  ZINC000074782190    0.0600
     50 H50        -2.5342   -0.3335   44.1003 H       1  ZINC000074782190    0.0700
     51 H51        -1.2307   -0.3342   42.8881 H       1  ZINC000074782190    0.0700
     52 H52        -0.9736   -1.1048   44.4719 H       1  ZINC000074782190    0.0700
@<TRIPOS>BOND
     1     1     2    1
     2     1    27    1
     3     1    28    1
     4     1    29    1
     5     2     7   ar
     6     2     3   ar
     7     3     4   ar
     8     3    30    1
     9     4     5   ar
    10     4    31    1
    11     5     6   ar
    12     5    32    1
    13     6     7   ar
    14     6    33    1
    15     7     8    1
    16     8     9    1
    17     9    10    1
    18     9    11    1
    19     9    12    1
    20    11    34    1
    21    11    35    1
    22    11    36    1
    23    12    13    1
    24    12    37    1
    25    12    38    1
    26    13    14   am
    27    13    39    1
    28    14    15    2
    29    14    16   am
    30    16    17    1
    31    16    24    1
    32    17    18    1
    33    17    40    1
    34    17    41    1
    35    18    23   ar
    36    18    19   ar
    37    19    20   ar
    38    19    42    1
    39    20    21   ar
    40    20    43    1
    41    21    22   ar
    42    21    44    1
    43    22    23   ar
    44    23    45    1
    45    24    25    1
    46    24    26    1
    47    24    46    1
    48    25    47    1
    49    25    48    1
    50    25    49    1
    51    26    50    1
    52    26    51    1
    53    26    52    1
@<TRIPOS>SUBSTRUCTURE
     1 ZINC000074782190        1 TEMP              0 ****  ****    0 ROOT


##########                                Name:    ZINC000441887161
##########                DOCK_Rotatable_Bonds:                   6
##########                         Heavy_Atoms:                  27
##########                    Molecular_Weight:             383.514
##########                DOCK_Rotatable_Bonds:                   6
##########                       Formal_Charge:          -0.0300002
##########                     HBond_Acceptors:                   6
##########                        HBond_Donors:                   1
##########                         Heavy_Atoms:                  27
##########                          Grid_Score:          -28.636738
##########                     Grid_vdw_energy:          -27.492834
##########                      Grid_es_energy:           -1.143904
##########           Internal_energy_repulsive:           19.693356

@<TRIPOS>MOLECULE
ZINC000441887161
 52 54 1 0 0
SMALL
USER_CHARGES


@<TRIPOS>ATOM
      1 C1        -16.2811   -2.0350   52.5508 C.3     1  ZINC000441887161   -0.1200
      2 C2        -15.5592   -2.2255   53.8599 C.ar    1  ZINC000441887161   -0.0700
      3 C3        -15.3072   -3.5002   54.3309 C.ar    1  ZINC000441887161   -0.1200
      4 C4        -14.6448   -3.6750   55.5318 C.ar    1  ZINC000441887161   -0.0900
      5 C5        -14.2343   -2.5752   56.2611 C.ar    1  ZINC000441887161   -0.1100
      6 C6        -13.5127   -2.7657   57.5703 C.3     1  ZINC000441887161    0.1900
      7 H7        -12.9924   -1.8454   57.8358 H       1  ZINC000441887161    0.1000
      8 C8        -14.5243   -3.1134   58.6642 C.3     1  ZINC000441887161    0.1000
      9 N9        -15.6272   -2.1495   58.6338 N.pl3   1  ZINC000441887161   -0.4600
     10 C10       -16.7855   -2.2630   57.9133 C.2     1  ZINC000441887161   -0.0500
     11 C11       -17.5171   -1.1632   58.1759 C.2     1  ZINC000441887161   -0.0200
     12 N12       -16.8243   -0.3991   59.0333 N.2     1  ZINC000441887161   -0.4900
     13 C13       -15.6935   -0.9859   59.3160 C.2     1  ZINC000441887161    0.1800
     14 N14       -12.5419   -3.8549   57.4388 N.am    1  ZINC000441887161   -1.1100
     15 S15       -10.9509   -3.5135   57.1313 S.o2    1  ZINC000441887161    2.6900
     16 O16       -10.2526   -4.7484   57.2124 O.2     1  ZINC000441887161   -0.9600
     17 O17       -10.9342   -2.6854   55.9767 O.2     1  ZINC000441887161   -0.9500
     18 C18       -10.3635   -2.5214   58.4637 C.ar    1  ZINC000441887161   -0.6800
     19 C19       -10.6319   -2.8880   59.7690 C.ar    1  ZINC000441887161   -0.0300
     20 C20       -10.1711   -2.1095   60.8144 C.ar    1  ZINC000441887161   -0.1300
     21 C21        -9.4414   -0.9648   60.5544 C.ar    1  ZINC000441887161   -0.0200
     22 C22        -8.9395   -0.1160   61.6939 C.3     1  ZINC000441887161   -0.1300
     23 C23        -9.1718   -0.5988   59.2486 C.ar    1  ZINC000441887161   -0.1000
     24 C24        -8.3759    0.6491   58.9650 C.3     1  ZINC000441887161   -0.1200
     25 C25        -9.6292   -1.3791   58.2037 C.ar    1  ZINC000441887161   -0.0100
     26 C26       -14.4851   -1.3000   55.7893 C.ar    1  ZINC000441887161   -0.0700
     27 C27       -14.0371   -0.1008   56.5842 C.3     1  ZINC000441887161   -0.1300
     28 C28       -15.1439   -1.1253   54.5868 C.ar    1  ZINC000441887161   -0.1200
     29 H29       -15.5561   -1.9997   51.7377 H       1  ZINC000441887161    0.0700
     30 H30       -16.9673   -2.8664   52.3899 H       1  ZINC000441887161    0.0700
     31 H31       -16.8423   -1.1009   52.5780 H       1  ZINC000441887161    0.0700
     32 H32       -15.6280   -4.3598   53.7610 H       1  ZINC000441887161    0.1200
     33 H33       -14.4486   -4.6712   55.9001 H       1  ZINC000441887161    0.1200
     34 H34       -14.9141   -4.1169   58.4931 H       1  ZINC000441887161    0.1100
     35 H35       -14.0348   -3.0748   59.6374 H       1  ZINC000441887161    0.1000
     36 H36       -17.0599   -3.0778   57.2596 H       1  ZINC000441887161    0.1700
     37 H37       -18.4908   -0.9364   57.7677 H       1  ZINC000441887161    0.1600
     38 H38       -14.9336   -0.6015   59.9802 H       1  ZINC000441887161    0.2000
     39 H39       -12.8311   -4.7762   57.5319 H       1  ZINC000441887161    0.4200
     40 H40       -11.2020   -3.7825   59.9723 H       1  ZINC000441887161    0.1300
     41 H41       -10.3814   -2.3957   61.8344 H       1  ZINC000441887161    0.1300
     42 H42        -7.9495   -0.4593   61.9940 H       1  ZINC000441887161    0.0800
     43 H43        -8.8817    0.9244   61.3739 H       1  ZINC000441887161    0.0800
     44 H44        -9.6243   -0.1990   62.5379 H       1  ZINC000441887161    0.0700
     45 H45        -7.3152    0.4017   58.9224 H       1  ZINC000441887161    0.0800
     46 H46        -8.6893    1.0708   58.0101 H       1  ZINC000441887161    0.0700
     47 H47        -8.5475    1.3775   59.7576 H       1  ZINC000441887161    0.0700
     48 H48        -9.4186   -1.0931   57.1837 H       1  ZINC000441887161    0.1400
     49 H49       -13.0294    0.1816   56.2790 H       1  ZINC000441887161    0.0800
     50 H50       -14.7180    0.7307   56.4025 H       1  ZINC000441887161    0.0700
     51 H51       -14.0396   -0.3470   57.6460 H       1  ZINC000441887161    0.0600
     52 H52       -15.3398   -0.1292   54.2183 H       1  ZINC000441887161    0.1300
@<TRIPOS>BOND
     1     1     2    1
     2     1    29    1
     3     1    30    1
     4     1    31    1
     5     2    28   ar
     6     2     3   ar
     7     3     4   ar
     8     3    32    1
     9     4     5   ar
    10     4    33    1
    11     5     6    1
    12     5    26   ar
    13     6     7    1
    14     6     8    1
    15     6    14    1
    16     8     9    1
    17     8    34    1
    18     8    35    1
    19     9    13    1
    20     9    10    1
    21    10    11    2
    22    10    36    1
    23    11    12    1
    24    11    37    1
    25    12    13    2
    26    13    38    1
    27    14    15   am
    28    14    39    1
    29    15    16    2
    30    15    17    2
    31    15    18    1
    32    18    25   ar
    33    18    19   ar
    34    19    20   ar
    35    19    40    1
    36    20    21   ar
    37    20    41    1
    38    21    22    1
    39    21    23   ar
    40    22    42    1
    41    22    43    1
    42    22    44    1
    43    23    24    1
    44    23    25   ar
    45    24    45    1
    46    24    46    1
    47    24    47    1
    48    25    48    1
    49    26    27    1
    50    26    28   ar
    51    27    49    1
    52    27    50    1
    53    27    51    1
    54    28    52    1
@<TRIPOS>SUBSTRUCTURE
     1 ZINC000441887161        1 TEMP              0 ****  ****    0 ROOT


##########                                Name:    ZINC000482139334
##########                DOCK_Rotatable_Bonds:                   4
##########                         Heavy_Atoms:                  26
##########                    Molecular_Weight:             348.376
##########                DOCK_Rotatable_Bonds:                   4
##########                       Formal_Charge:           0.0300002
##########                     HBond_Acceptors:                   5
##########                        HBond_Donors:                   1
##########                         Heavy_Atoms:                  26
##########                          Grid_Score:          -28.605034
##########                     Grid_vdw_energy:          -27.854477
##########                      Grid_es_energy:           -0.750556
##########           Internal_energy_repulsive:            8.810423

@<TRIPOS>MOLECULE
ZINC000482139334
 43 47 1 0 0
SMALL
USER_CHARGES


@<TRIPOS>ATOM
      1 O1         -7.0958   -1.4645   52.5016 O.2     1  ZINC000482139334   -0.4800
      2 C2         -7.2928   -0.3366   52.1017 C.2     1  ZINC000482139334    0.5500
      3 N3         -8.3799    0.3446   52.5150 N.am    1  ZINC000482139334   -0.6100
      4 C4         -9.2758   -0.2461   53.3925 C.2     1  ZINC000482139334    0.4300
      5 N5         -9.0599   -0.4700   54.6633 N.2     1  ZINC000482139334   -0.4800
      6 C6        -10.1645   -1.0602   55.1904 C.2     1  ZINC000482139334    0.0400
      7 C7        -10.3461   -1.4837   56.6007 C.ar    1  ZINC000482139334   -0.0500
      8 C8        -11.3266   -2.4167   56.9299 C.ar    1  ZINC000482139334   -0.0800
      9 C9        -11.4911   -2.8077   58.2436 C.ar    1  ZINC000482139334   -0.1300
     10 C10       -10.6854   -2.2751   59.2335 C.ar    1  ZINC000482139334   -0.0800
     11 C11        -9.7100   -1.3477   58.9147 C.ar    1  ZINC000482139334   -0.1600
     12 C12        -9.5315   -0.9530   57.6021 C.ar    1  ZINC000482139334    0.1300
     13 F13        -8.5786   -0.0472   57.2909 F       1  ZINC000482139334   -0.1200
     14 C14       -11.0690   -1.1902   54.1912 C.2     1  ZINC000482139334   -0.0600
     15 O15       -10.5074   -0.6755   53.0775 O.3     1  ZINC000482139334   -0.1800
     16 C16        -6.3189    0.3056   51.1478 C.3     1  ZINC000482139334   -0.1800
     17 H17        -5.6983   -0.3834   50.5748 H       1  ZINC000482139334    0.1400
     18 C18        -6.7521    1.6045   50.4625 C.3     1  ZINC000482139334   -0.1200
     19 C19        -5.6973    1.6330   51.5640 C.3     1  ZINC000482139334   -0.0500
     20 C20        -5.9979    2.2580   52.9366 C.3     1  ZINC000482139334   -0.0700
     21 C21        -4.9725    3.4117   53.0020 C.3     1  ZINC000482139334   -0.0900
     22 C22        -3.8345    2.9841   52.0992 C.ar    1  ZINC000482139334   -0.0800
     23 C23        -2.5354    3.4538   52.0103 C.ar    1  ZINC000482139334   -0.1100
     24 C24        -1.6575    2.9046   51.0961 C.ar    1  ZINC000482139334   -0.1100
     25 C25        -2.0769    1.8821   50.2662 C.ar    1  ZINC000482139334   -0.1200
     26 C26        -3.3725    1.4113   50.3530 C.ar    1  ZINC000482139334   -0.1000
     27 C27        -4.2547    1.9594   51.2687 C.ar    1  ZINC000482139334   -0.0700
     28 H28        -8.5354    1.2481   52.1984 H       1  ZINC000482139334    0.4400
     29 H29       -11.9573   -2.8336   56.1585 H       1  ZINC000482139334    0.1300
     30 H30       -12.2513   -3.5313   58.4991 H       1  ZINC000482139334    0.1400
     31 H31       -10.8187   -2.5842   60.2598 H       1  ZINC000482139334    0.1400
     32 H32        -9.0841   -0.9345   59.6918 H       1  ZINC000482139334    0.1400
     33 H33       -12.0558   -1.6215   54.2714 H       1  ZINC000482139334    0.2200
     34 H34        -6.4157    1.7703   49.4391 H       1  ZINC000482139334    0.1200
     35 H35        -7.7415    1.9944   50.7018 H       1  ZINC000482139334    0.1100
     36 H36        -7.0172    2.6423   52.9731 H       1  ZINC000482139334    0.0800
     37 H37        -5.8242    1.5387   53.7369 H       1  ZINC000482139334    0.0900
     38 H38        -5.4193    4.3357   52.6351 H       1  ZINC000482139334    0.0800
     39 H39        -4.6158    3.5428   54.0236 H       1  ZINC000482139334    0.0800
     40 H40        -2.2071    4.2532   52.6582 H       1  ZINC000482139334    0.1200
     41 H41        -0.6449    3.2741   51.0297 H       1  ZINC000482139334    0.1300
     42 H42        -1.3923    1.4517   49.5504 H       1  ZINC000482139334    0.1300
     43 H43        -3.6991    0.6124   49.7036 H       1  ZINC000482139334    0.1200
@<TRIPOS>BOND
     1     1     2    2
     2     2     3   am
     3     2    16    1
     4     3     4    1
     5     3    28    1
     6     4    15    1
     7     4     5    2
     8     5     6    1
     9     6     7    1
    10     6    14    2
    11     7    12   ar
    12     7     8   ar
    13     8     9   ar
    14     8    29    1
    15     9    10   ar
    16     9    30    1
    17    10    11   ar
    18    10    31    1
    19    11    12   ar
    20    11    32    1
    21    12    13    1
    22    14    15    1
    23    14    33    1
    24    16    17    1
    25    16    19    1
    26    16    18    1
    27    18    19    1
    28    18    34    1
    29    18    35    1
    30    19    27    1
    31    19    20    1
    32    20    21    1
    33    20    36    1
    34    20    37    1
    35    21    22    1
    36    21    38    1
    37    21    39    1
    38    22    27   ar
    39    22    23   ar
    40    23    24   ar
    41    23    40    1
    42    24    25   ar
    43    24    41    1
    44    25    26   ar
    45    25    42    1
    46    26    27   ar
    47    26    43    1
@<TRIPOS>SUBSTRUCTURE
     1 ZINC000482139334        1 TEMP              0 ****  ****    0 ROOT


##########                                Name:    ZINC000291574087
##########                DOCK_Rotatable_Bonds:                   8
##########                         Heavy_Atoms:                  23
##########                    Molecular_Weight:             387.249
##########                DOCK_Rotatable_Bonds:                   8
##########                       Formal_Charge:          -0.0400007
##########                     HBond_Acceptors:                   6
##########                        HBond_Donors:                   2
##########                         Heavy_Atoms:                  23
##########                          Grid_Score:          -28.588287
##########                     Grid_vdw_energy:          -27.148872
##########                      Grid_es_energy:           -1.439416
##########           Internal_energy_repulsive:           30.258951

@<TRIPOS>MOLECULE
ZINC000291574087
 43 44 1 0 0
SMALL
USER_CHARGES


@<TRIPOS>ATOM
      1 C1         -2.1140    0.5901   44.3367 C.3     1  ZINC000291574087    0.0200
      2 O2         -1.5153    1.2357   45.4623 O.3     1  ZINC000291574087   -0.3700
      3 C3         -0.2157    0.7414   45.7924 C.3     1  ZINC000291574087    0.1400
      4 C4         -0.2980   -0.7597   46.0763 C.3     1  ZINC000291574087   -0.1500
      5 C5          0.3059    1.4675   47.0340 C.3     1  ZINC000291574087    0.0900
      6 N6         -0.5618    1.1677   48.1756 N.am    1  ZINC000291574087   -0.6900
      7 C7         -1.6073    1.9706   48.4566 C.2     1  ZINC000291574087    0.5100
      8 O8         -1.8289    2.9427   47.7648 O.2     1  ZINC000291574087   -0.5100
      9 C9         -2.4929    1.6639   49.6194 C.2     1  ZINC000291574087    0.5100
     10 O10        -2.3427    0.6324   50.2413 O.2     1  ZINC000291574087   -0.4900
     11 N11        -3.4588    2.5327   49.9782 N.am    1  ZINC000291574087   -0.6400
     12 C12        -4.2882    2.2455   51.0670 C.ar    1  ZINC000291574087    0.1300
     13 C13        -5.1759    1.1799   51.0034 C.ar    1  ZINC000291574087   -0.1000
     14 C14        -5.9937    0.8981   52.0807 C.ar    1  ZINC000291574087   -0.0400
     15 C15        -6.9572   -0.2585   52.0113 C.3     1  ZINC000291574087   -0.1300
     16 C16        -5.9294    1.6758   53.2229 C.ar    1  ZINC000291574087   -0.0900
     17 Br17       -7.0504    1.2845   54.6948 Br      1  ZINC000291574087   -0.0300
     18 C18        -5.0461    2.7390   53.2912 C.ar    1  ZINC000291574087   -0.1000
     19 C19        -4.2214    3.0236   52.2188 C.ar    1  ZINC000291574087    0.0700
     20 F20        -3.3591    4.0614   52.2851 F       1  ZINC000291574087   -0.1300
     21 C21         0.7363    0.9872   44.6202 C.3     1  ZINC000291574087   -0.1900
     22 C22         1.8445    2.0238   44.8155 C.3     1  ZINC000291574087   -0.1700
     23 C23         2.1884    0.5334   44.7822 C.3     1  ZINC000291574087   -0.1600
     24 H24        -3.0975    1.0218   44.1509 H       1  ZINC000291574087    0.0900
     25 H25        -1.4835    0.7317   43.4588 H       1  ZINC000291574087    0.0400
     26 H26        -2.2177   -0.4754   44.5416 H       1  ZINC000291574087    0.0500
     27 H27        -0.6697   -1.2770   45.1918 H       1  ZINC000291574087    0.0700
     28 H28         0.6932   -1.1367   46.3281 H       1  ZINC000291574087    0.0800
     29 H29        -0.9762   -0.9349   46.9115 H       1  ZINC000291574087    0.0700
     30 H30         1.3204    1.1332   47.2510 H       1  ZINC000291574087    0.0900
     31 H31         0.3086    2.5422   46.8521 H       1  ZINC000291574087    0.0800
     32 H32        -0.3839    0.3914   48.7293 H       1  ZINC000291574087    0.4200
     33 H33        -3.5788    3.3570   49.4813 H       1  ZINC000291574087    0.4300
     34 H34        -5.2273    0.5720   50.1123 H       1  ZINC000291574087    0.1600
     35 H35        -6.4687   -1.1609   52.3789 H       1  ZINC000291574087    0.0800
     36 H36        -7.8302   -0.0416   52.6270 H       1  ZINC000291574087    0.0800
     37 H37        -7.2698   -0.4096   50.9781 H       1  ZINC000291574087    0.0800
     38 H38        -4.9984    3.3445   54.1843 H       1  ZINC000291574087    0.1500
     39 H39         0.2914    0.9065   43.6283 H       1  ZINC000291574087    0.1100
     40 H40         2.1289    2.6255   43.9522 H       1  ZINC000291574087    0.1000
     41 H41         1.8953    2.5307   45.7792 H       1  ZINC000291574087    0.1000
     42 H42         2.4655    0.0596   45.7239 H       1  ZINC000291574087    0.1000
     43 H43         2.6990    0.1544   43.8969 H       1  ZINC000291574087    0.1000
@<TRIPOS>BOND
     1     1     2    1
     2     1    24    1
     3     1    25    1
     4     1    26    1
     5     2     3    1
     6     3     4    1
     7     3     5    1
     8     3    21    1
     9     4    27    1
    10     4    28    1
    11     4    29    1
    12     5     6    1
    13     5    30    1
    14     5    31    1
    15     6     7   am
    16     6    32    1
    17     7     8    2
    18     7     9    1
    19     9    10    2
    20     9    11   am
    21    11    12    1
    22    11    33    1
    23    12    19   ar
    24    12    13   ar
    25    13    14   ar
    26    13    34    1
    27    14    15    1
    28    14    16   ar
    29    15    35    1
    30    15    36    1
    31    15    37    1
    32    16    17    1
    33    16    18   ar
    34    18    19   ar
    35    18    38    1
    36    19    20    1
    37    21    23    1
    38    21    22    1
    39    21    39    1
    40    22    23    1
    41    22    40    1
    42    22    41    1
    43    23    42    1
    44    23    43    1
@<TRIPOS>SUBSTRUCTURE
     1 ZINC000291574087        1 TEMP              0 ****  ****    0 ROOT


##########                                Name:    ZINC001625935330
##########                DOCK_Rotatable_Bonds:                   5
##########                         Heavy_Atoms:                  25
##########                    Molecular_Weight:             327.385
##########                DOCK_Rotatable_Bonds:                   5
##########                       Formal_Charge:           0.0199995
##########                     HBond_Acceptors:                   4
##########                        HBond_Donors:                   1
##########                         Heavy_Atoms:                  25
##########                          Grid_Score:          -28.579390
##########                     Grid_vdw_energy:          -28.360855
##########                      Grid_es_energy:           -0.218535
##########           Internal_energy_repulsive:           12.179879

@<TRIPOS>MOLECULE
ZINC001625935330
 42 44 1 0 0
SMALL
USER_CHARGES


@<TRIPOS>ATOM
      1 C1         -8.4653   -1.3239   60.2186 C.3     1  ZINC001625935330   -0.1600
      2 C2         -9.4728   -0.6263   59.3024 C.3     1  ZINC001625935330    0.1800
      3 H3         -9.9674    0.1758   59.8503 H       1  ZINC001625935330    0.1000
      4 N4         -8.7729   -0.0667   58.1434 N.am    1  ZINC001625935330   -0.7100
      5 C5         -8.1372    1.1171   58.2471 C.2     1  ZINC001625935330    0.5800
      6 O6         -8.1458    1.7212   59.3015 O.2     1  ZINC001625935330   -0.5300
      7 C7         -7.4278    1.6823   57.0755 C.ar    1  ZINC001625935330    0.0800
      8 C8         -7.4498    1.0015   55.8631 C.ar    1  ZINC001625935330   -0.1000
      9 C9         -6.7759    1.5492   54.7680 C.ar    1  ZINC001625935330    0.0000
     10 C10        -6.7716    0.8596   53.4543 C.ar    1  ZINC001625935330   -0.0600
     11 C11        -7.7141   -0.1295   53.1804 C.ar    1  ZINC001625935330   -0.1000
     12 C12        -7.7058   -0.7672   51.9565 C.ar    1  ZINC001625935330   -0.1200
     13 C13        -6.7640   -0.4262   51.0025 C.ar    1  ZINC001625935330   -0.1100
     14 C14        -5.8259    0.5549   51.2689 C.ar    1  ZINC001625935330   -0.1200
     15 C15        -5.8284    1.2029   52.4874 C.ar    1  ZINC001625935330   -0.1000
     16 C16        -6.1068    2.7629   54.9428 C.ar    1  ZINC001625935330   -0.1400
     17 C17        -6.1336    3.3764   56.1826 C.ar    1  ZINC001625935330    0.1100
     18 N18        -6.7818    2.8369   57.1922 N.ar    1  ZINC001625935330   -0.4600
     19 C19       -10.5010   -1.6238   58.8347 C.ar    1  ZINC001625935330   -0.0900
     20 C20       -10.2491   -2.4037   57.7203 C.ar    1  ZINC001625935330   -0.0800
     21 C21       -11.1878   -3.3221   57.2841 C.ar    1  ZINC001625935330   -0.1100
     22 C22       -12.3819   -3.4661   57.9589 C.ar    1  ZINC001625935330   -0.0700
     23 C23       -12.6427   -2.6823   59.0850 C.ar    1  ZINC001625935330   -0.0200
     24 C24       -13.8804   -2.8264   59.7907 C.1     1  ZINC001625935330    0.2500
     25 N25       -14.8622   -2.9408   60.3506 N.1     1  ZINC001625935330   -0.4100
     26 C26       -11.6892   -1.7611   59.5225 C.ar    1  ZINC001625935330   -0.0600
     27 H27        -8.9860   -1.7402   61.0810 H       1  ZINC001625935330    0.0700
     28 H28        -7.9707   -2.1259   59.6708 H       1  ZINC001625935330    0.0600
     29 H29        -7.7215   -0.6024   60.5568 H       1  ZINC001625935330    0.0700
     30 H30        -8.7669   -0.5482   57.3015 H       1  ZINC001625935330    0.4100
     31 H31        -7.9789    0.0647   55.7694 H       1  ZINC001625935330    0.1500
     32 H32        -8.4497   -0.3967   53.9248 H       1  ZINC001625935330    0.1300
     33 H33        -8.4356   -1.5342   51.7434 H       1  ZINC001625935330    0.1300
     34 H34        -6.7608   -0.9281   50.0462 H       1  ZINC001625935330    0.1300
     35 H35        -5.0927    0.8170   50.5205 H       1  ZINC001625935330    0.1300
     36 H36        -5.0958    1.9690   52.6943 H       1  ZINC001625935330    0.1300
     37 H37        -5.5746    3.2168   54.1199 H       1  ZINC001625935330    0.1400
     38 H38        -5.6175    4.3147   56.3227 H       1  ZINC001625935330    0.1700
     39 H39        -9.3156   -2.2950   57.1881 H       1  ZINC001625935330    0.1300
     40 H40       -10.9850   -3.9273   56.4129 H       1  ZINC001625935330    0.1400
     41 H41       -13.1139   -4.1829   57.6172 H       1  ZINC001625935330    0.1400
     42 H42       -11.8845   -1.1519   60.3926 H       1  ZINC001625935330    0.1400
@<TRIPOS>BOND
     1     1     2    1
     2     1    27    1
     3     1    28    1
     4     1    29    1
     5     2     3    1
     6     2     4    1
     7     2    19    1
     8     4     5   am
     9     4    30    1
    10     5     6    2
    11     5     7    1
    12     7    18   ar
    13     7     8   ar
    14     8     9   ar
    15     8    31    1
    16     9    10    1
    17     9    16   ar
    18    10    15   ar
    19    10    11   ar
    20    11    12   ar
    21    11    32    1
    22    12    13   ar
    23    12    33    1
    24    13    14   ar
    25    13    34    1
    26    14    15   ar
    27    14    35    1
    28    15    36    1
    29    16    17   ar
    30    16    37    1
    31    17    18   ar
    32    17    38    1
    33    19    26   ar
    34    19    20   ar
    35    20    21   ar
    36    20    39    1
    37    21    22   ar
    38    21    40    1
    39    22    23   ar
    40    22    41    1
    41    23    24    1
    42    23    26   ar
    43    24    25    3
    44    26    42    1
@<TRIPOS>SUBSTRUCTURE
     1 ZINC001625935330        1 TEMP              0 ****  ****    0 ROOT


##########                                Name:    ZINC001272744746
##########                DOCK_Rotatable_Bonds:                   6
##########                         Heavy_Atoms:                  25
##########                    Molecular_Weight:             348.417
##########                DOCK_Rotatable_Bonds:                   6
##########                       Formal_Charge:           0.0299999
##########                     HBond_Acceptors:                   6
##########                        HBond_Donors:                   1
##########                         Heavy_Atoms:                  25
##########                          Grid_Score:          -28.576965
##########                     Grid_vdw_energy:          -28.575508
##########                      Grid_es_energy:           -0.001457
##########           Internal_energy_repulsive:           70.846764

@<TRIPOS>MOLECULE
ZINC001272744746
 50 52 1 0 0
SMALL
USER_CHARGES


@<TRIPOS>ATOM
      1 C1        -15.9364   -2.1472   59.6956 C.2     1  ZINC001272744746   -0.1700
      2 C2        -15.4544   -2.9192   58.7533 C.2     1  ZINC001272744746   -0.1700
      3 C3        -14.3586   -3.9031   59.0724 C.3     1  ZINC001272744746    0.1500
      4 N4        -13.0811   -3.3911   58.5700 N.am    1  ZINC001272744746   -0.6100
      5 C5        -12.4951   -2.1009   58.9576 C.3     1  ZINC001272744746    0.0700
      6 C6        -11.0180   -2.1815   58.5359 C.3     1  ZINC001272744746    0.1100
      7 C7        -11.0519   -3.2257   57.4050 C.3     1  ZINC001272744746   -0.1500
      8 C8        -12.2914   -4.0443   57.6991 C.2     1  ZINC001272744746    0.5200
      9 O9        -12.5397   -5.1278   57.2139 O.2     1  ZINC001272744746   -0.5200
     10 C10       -10.1573   -2.6730   59.6915 C.3     1  ZINC001272744746   -0.1000
     11 C11       -10.1599   -1.6240   60.8087 C.3     1  ZINC001272744746   -0.1200
     12 C12        -9.6756   -0.2871   60.2405 C.3     1  ZINC001272744746   -0.1200
     13 C13       -10.5867    0.1346   59.0857 C.3     1  ZINC001272744746    0.0500
     14 N14       -10.5522   -0.8921   58.0344 N.3     1  ZINC001272744746   -0.5100
     15 C15       -11.3304   -0.4711   56.8617 C.3     1  ZINC001272744746    0.0800
     16 C16       -10.4213   -0.3757   55.6636 C.ar    1  ZINC001272744746   -0.0200
     17 C17       -10.8720   -0.7832   54.4220 C.ar    1  ZINC001272744746   -0.1700
     18 C18       -10.0403   -0.6975   53.3185 C.ar    1  ZINC001272744746    0.1200
     19 F19       -10.4829   -1.0964   52.1059 F       1  ZINC001272744746   -0.1200
     20 C20        -8.7526   -0.2012   53.4584 C.ar    1  ZINC001272744746    0.0400
     21 O21        -7.9335   -0.1154   52.3755 O.3     1  ZINC001272744746   -0.4700
     22 C22        -8.3008    0.2089   54.7084 C.ar    1  ZINC001272744746    0.1300
     23 O23        -7.0393    0.6964   54.8506 O.3     1  ZINC001272744746   -0.3000
     24 C24        -6.2227    0.7348   53.6785 C.3     1  ZINC001272744746    0.0200
     25 C25        -9.1405    0.1246   55.8077 C.ar    1  ZINC001272744746   -0.1800
     26 H26       -15.5484   -2.2160   60.7012 H       1  ZINC001272744746    0.1000
     27 H27       -16.7187   -1.4389   59.4660 H       1  ZINC001272744746    0.1000
     28 H28       -15.8424   -2.8504   57.7477 H       1  ZINC001272744746    0.1100
     29 H29       -14.2960   -4.0399   60.1519 H       1  ZINC001272744746    0.0900
     30 H30       -14.5789   -4.8591   58.5971 H       1  ZINC001272744746    0.0800
     31 H31       -12.9940   -1.2865   58.4323 H       1  ZINC001272744746    0.0700
     32 H32       -12.5728   -1.9594   60.0356 H       1  ZINC001272744746    0.0900
     33 H33       -11.1345   -2.7356   56.4349 H       1  ZINC001272744746    0.1100
     34 H34       -10.1636   -3.8565   57.4408 H       1  ZINC001272744746    0.1100
     35 H35       -10.5612   -3.6110   60.0724 H       1  ZINC001272744746    0.0700
     36 H36        -9.1366   -2.8309   59.3432 H       1  ZINC001272744746    0.0800
     37 H37       -11.1713   -1.5094   61.1988 H       1  ZINC001272744746    0.0600
     38 H38        -9.4929   -1.9428   61.6097 H       1  ZINC001272744746    0.0700
     39 H39        -9.7045    0.4720   61.0222 H       1  ZINC001272744746    0.0700
     40 H40        -8.6539   -0.3956   59.8765 H       1  ZINC001272744746    0.0700
     41 H41       -11.6076    0.2468   59.4506 H       1  ZINC001272744746    0.0400
     42 H42       -10.2404    1.0842   58.6776 H       1  ZINC001272744746    0.0900
     43 H43       -12.1152   -1.2017   56.6651 H       1  ZINC001272744746    0.1000
     44 H44       -11.7805    0.5026   57.0548 H       1  ZINC001272744746    0.0600
     45 H45       -11.8746   -1.1697   54.3127 H       1  ZINC001272744746    0.1400
     46 H46        -7.0560    0.2396   52.5732 H       1  ZINC001272744746    0.3900
     47 H47        -6.6969    1.3647   52.9258 H       1  ZINC001272744746    0.0600
     48 H48        -5.2443    1.1440   53.9305 H       1  ZINC001272744746    0.1100
     49 H49        -6.1039   -0.2746   53.2851 H       1  ZINC001272744746    0.0600
     50 H50        -8.7915    0.4425   56.7791 H       1  ZINC001272744746    0.1400
@<TRIPOS>BOND
     1     1     2    2
     2     1    26    1
     3     1    27    1
     4     2     3    1
     5     2    28    1
     6     3     4    1
     7     3    29    1
     8     3    30    1
     9     4     8   am
    10     4     5    1
    11     5     6    1
    12     5    31    1
    13     5    32    1
    14     6    14    1
    15     6     7    1
    16     6    10    1
    17     7     8    1
    18     7    33    1
    19     7    34    1
    20     8     9    2
    21    10    11    1
    22    10    35    1
    23    10    36    1
    24    11    12    1
    25    11    37    1
    26    11    38    1
    27    12    13    1
    28    12    39    1
    29    12    40    1
    30    13    14    1
    31    13    41    1
    32    13    42    1
    33    14    15    1
    34    15    16    1
    35    15    43    1
    36    15    44    1
    37    16    25   ar
    38    16    17   ar
    39    17    18   ar
    40    17    45    1
    41    18    19    1
    42    18    20   ar
    43    20    21    1
    44    20    22   ar
    45    21    46    1
    46    22    23    1
    47    22    25   ar
    48    23    24    1
    49    24    47    1
    50    24    48    1
    51    24    49    1
    52    25    50    1
@<TRIPOS>SUBSTRUCTURE
     1 ZINC001272744746        1 TEMP              0 ****  ****    0 ROOT


##########                                Name:    ZINC000065993627
##########                DOCK_Rotatable_Bonds:                   7
##########                         Heavy_Atoms:                  28
##########                    Molecular_Weight:             382.462
##########                DOCK_Rotatable_Bonds:                   7
##########                       Formal_Charge:          -0.0200002
##########                     HBond_Acceptors:                   7
##########                        HBond_Donors:                   2
##########                         Heavy_Atoms:                  28
##########                          Grid_Score:          -28.576048
##########                     Grid_vdw_energy:          -27.379665
##########                      Grid_es_energy:           -1.196383
##########           Internal_energy_repulsive:           21.787733

@<TRIPOS>MOLECULE
ZINC000065993627
 54 56 1 0 0
SMALL
USER_CHARGES


@<TRIPOS>ATOM
      1 C1         -8.6779    1.3084   56.0285 C.3     1  ZINC000065993627   -0.1200
      2 C2         -8.7282    0.6569   54.6706 C.ar    1  ZINC000065993627   -0.0700
      3 C3         -7.6830    0.8264   53.7847 C.ar    1  ZINC000065993627   -0.1800
      4 C4         -7.7293    0.2259   52.5330 C.ar    1  ZINC000065993627    0.2000
      5 N5         -6.6699    0.3972   51.6352 N.pl3   1  ZINC000065993627   -0.6400
      6 C6         -6.2302   -0.7224   50.7989 C.3     1  ZINC000065993627    0.1000
      7 C7         -6.0007    1.6963   51.5313 C.3     1  ZINC000065993627    0.0900
      8 C8         -8.8268   -0.5447   52.1731 C.ar    1  ZINC000065993627   -0.1800
      9 C9         -9.8721   -0.7140   53.0596 C.ar    1  ZINC000065993627   -0.0800
     10 C10        -9.8230   -0.1184   54.3125 C.ar    1  ZINC000065993627    0.1100
     11 N11       -10.8842   -0.2907   55.2125 N.am    1  ZINC000065993627   -0.6800
     12 C12       -10.8099   -1.2379   56.1684 C.2     1  ZINC000065993627    0.7000
     13 O13        -9.8228   -1.9430   56.2504 O.2     1  ZINC000065993627   -0.5700
     14 N14       -11.8300   -1.4035   57.0335 N.am    1  ZINC000065993627   -0.7400
     15 C15       -11.7486   -2.4319   58.0737 C.3     1  ZINC000065993627    0.2100
     16 H16       -11.0960   -3.2377   57.7378 H       1  ZINC000065993627    0.1000
     17 C17       -13.1464   -2.9895   58.3502 C.3     1  ZINC000065993627   -0.1600
     18 C18       -11.1907   -1.8266   59.3361 C.ar    1  ZINC000065993627   -0.1200
     19 C19       -11.9214   -0.8781   60.0279 C.ar    1  ZINC000065993627   -0.0800
     20 C20       -11.4128   -0.3213   61.1850 C.ar    1  ZINC000065993627   -0.1500
     21 C21       -10.1664   -0.7151   61.6535 C.ar    1  ZINC000065993627    0.1800
     22 N22        -9.6483   -0.1533   62.8260 N.am    1  ZINC000065993627   -0.5700
     23 C23        -8.2206   -0.0321   63.1582 C.3     1  ZINC000065993627    0.0600
     24 C24        -8.2219    0.6485   64.5406 C.3     1  ZINC000065993627    0.0400
     25 O25        -9.6354    0.8373   64.8394 O.3     1  ZINC000065993627   -0.3200
     26 C26       -10.3721    0.3671   63.8265 C.2     1  ZINC000065993627    0.6400
     27 O27       -11.5867    0.4006   63.8187 O.2     1  ZINC000065993627   -0.5000
     28 C28        -9.4350   -1.6679   60.9565 C.ar    1  ZINC000065993627   -0.1500
     29 C29        -9.9516   -2.2249   59.8030 C.ar    1  ZINC000065993627   -0.0800
     30 H30        -8.2011    0.6324   56.7384 H       1  ZINC000065993627    0.0700
     31 H31        -8.1051    2.2335   55.9667 H       1  ZINC000065993627    0.0700
     32 H32        -9.6915    1.5302   56.3627 H       1  ZINC000065993627    0.0600
     33 H33        -6.8296    1.4261   54.0647 H       1  ZINC000065993627    0.1200
     34 H34        -6.7860   -0.7158   49.8613 H       1  ZINC000065993627    0.0500
     35 H35        -5.1648   -0.6236   50.5904 H       1  ZINC000065993627    0.0700
     36 H36        -6.4123   -1.6607   51.3228 H       1  ZINC000065993627    0.0700
     37 H37        -6.4014    2.3729   52.2861 H       1  ZINC000065993627    0.0800
     38 H38        -4.9302    1.5672   51.6906 H       1  ZINC000065993627    0.0500
     39 H39        -6.1725    2.1153   50.5398 H       1  ZINC000065993627    0.0500
     40 H40        -8.8632   -1.0114   51.1998 H       1  ZINC000065993627    0.1300
     41 H41       -10.7258   -1.3134   52.7796 H       1  ZINC000065993627    0.1500
     42 H42       -11.6717    0.2718   55.1472 H       1  ZINC000065993627    0.4000
     43 H43       -12.6181   -0.8419   56.9674 H       1  ZINC000065993627    0.4000
     44 H44       -13.5500   -3.4273   57.4372 H       1  ZINC000065993627    0.0700
     45 H45       -13.0859   -3.7546   59.1241 H       1  ZINC000065993627    0.0700
     46 H46       -13.7992   -2.1837   58.6861 H       1  ZINC000065993627    0.0600
     47 H47       -12.8907   -0.5719   59.6627 H       1  ZINC000065993627    0.1300
     48 H48       -11.9838    0.4196   61.7247 H       1  ZINC000065993627    0.1600
     49 H49        -7.7560   -1.0164   63.2164 H       1  ZINC000065993627    0.1000
     50 H50        -7.7085    0.5912   62.4251 H       1  ZINC000065993627    0.1000
     51 H51        -7.7570    0.0022   65.2851 H       1  ZINC000065993627    0.1100
     52 H52        -7.7095    1.6094   64.4940 H       1  ZINC000065993627    0.1100
     53 H53        -8.4652   -1.9759   61.3182 H       1  ZINC000065993627    0.1300
     54 H54        -9.3835   -2.9662   59.2607 H       1  ZINC000065993627    0.1300
@<TRIPOS>BOND
     1     1     2    1
     2     1    30    1
     3     1    31    1
     4     1    32    1
     5     2    10   ar
     6     2     3   ar
     7     3     4   ar
     8     3    33    1
     9     4     5    1
    10     4     8   ar
    11     5     6    1
    12     5     7    1
    13     6    34    1
    14     6    35    1
    15     6    36    1
    16     7    37    1
    17     7    38    1
    18     7    39    1
    19     8     9   ar
    20     8    40    1
    21     9    10   ar
    22     9    41    1
    23    10    11    1
    24    11    12   am
    25    11    42    1
    26    12    13    2
    27    12    14   am
    28    14    15    1
    29    14    43    1
    30    15    16    1
    31    15    17    1
    32    15    18    1
    33    17    44    1
    34    17    45    1
    35    17    46    1
    36    18    29   ar
    37    18    19   ar
    38    19    20   ar
    39    19    47    1
    40    20    21   ar
    41    20    48    1
    42    21    22    1
    43    21    28   ar
    44    22    26   am
    45    22    23    1
    46    23    24    1
    47    23    49    1
    48    23    50    1
    49    24    25    1
    50    24    51    1
    51    24    52    1
    52    25    26    1
    53    26    27    2
    54    28    29   ar
    55    28    53    1
    56    29    54    1
@<TRIPOS>SUBSTRUCTURE
     1 ZINC000065993627        1 TEMP              0 ****  ****    0 ROOT


##########                                Name:    ZINC001060733018
##########                DOCK_Rotatable_Bonds:                   7
##########                         Heavy_Atoms:                  24
##########                    Molecular_Weight:             342.429
##########                DOCK_Rotatable_Bonds:                   7
##########                       Formal_Charge:           0.0200001
##########                     HBond_Acceptors:                   6
##########                        HBond_Donors:                   2
##########                         Heavy_Atoms:                  24
##########                          Grid_Score:          -28.536366
##########                     Grid_vdw_energy:          -28.720686
##########                      Grid_es_energy:            0.184321
##########           Internal_energy_repulsive:            6.951260

@<TRIPOS>MOLECULE
ZINC001060733018
 52 54 1 0 0
SMALL
USER_CHARGES


@<TRIPOS>ATOM
      1 O1         -5.3448    1.5142   51.6896 O.2     1  ZINC001060733018   -0.5000
      2 C2         -6.4744    1.7236   51.3011 C.2     1  ZINC001060733018    0.4700
      3 N3         -7.4929    1.7681   52.1828 N.am    1  ZINC001060733018   -0.7100
      4 C4         -7.2359    1.5595   53.6099 C.3     1  ZINC001060733018    0.1200
      5 C5         -8.4808    0.9641   54.2706 C.3     1  ZINC001060733018   -0.1000
      6 H6         -9.3241    1.6409   54.1327 H       1  ZINC001060733018    0.0800
      7 C7         -8.8014   -0.3876   53.6294 C.3     1  ZINC001060733018   -0.1100
      8 C8        -10.0465   -0.9829   54.2901 C.3     1  ZINC001060733018   -0.1300
      9 C9         -9.7871   -1.1765   55.7855 C.3     1  ZINC001060733018    0.1400
     10 H10        -8.9438   -1.8533   55.9233 H       1  ZINC001060733018    0.0900
     11 N11       -10.9791   -1.7466   56.4180 N.am    1  ZINC001060733018   -0.7300
     12 C12       -10.8837   -2.3390   57.6249 C.2     1  ZINC001060733018    0.5200
     13 O13        -9.8111   -2.3989   58.1878 O.2     1  ZINC001060733018   -0.5400
     14 C14       -12.1096   -2.9270   58.2747 C.3     1  ZINC001060733018   -0.1000
     15 H15       -11.8113   -3.7108   58.9709 H       1  ZINC001060733018    0.1000
     16 C16       -13.0219   -3.5199   57.1997 C.3     1  ZINC001060733018   -0.1100
     17 C17       -14.2329   -4.1843   57.8561 C.3     1  ZINC001060733018   -0.1200
     18 C18       -15.0534   -3.1271   58.6012 C.3     1  ZINC001060733018   -0.0800
     19 C19       -14.1484   -2.4216   59.6156 C.3     1  ZINC001060733018   -0.1300
     20 C20       -14.0895   -2.9927   61.0322 C.3     1  ZINC001060733018   -0.1700
     21 C21       -14.8184   -1.6735   60.7674 C.3     1  ZINC001060733018   -0.1700
     22 C22       -12.8618   -1.8292   59.0332 C.3     1  ZINC001060733018   -0.0600
     23 C23        -9.4664    0.1751   56.4267 C.3     1  ZINC001060733018   -0.1200
     24 C24        -8.2214    0.7705   55.7660 C.3     1  ZINC001060733018   -0.1100
     25 C25        -6.7385    1.9401   49.8334 C.3     1  ZINC001060733018    0.2600
     26 F26        -7.8407    2.7876   49.6780 F       1  ZINC001060733018   -0.1700
     27 F27        -5.6145    2.5229   49.2382 F       1  ZINC001060733018   -0.1900
     28 H28        -8.3960    1.9383   51.8725 H       1  ZINC001060733018    0.4100
     29 H29        -6.3970    0.8742   53.7317 H       1  ZINC001060733018    0.0800
     30 H30        -6.9966    2.5137   54.0794 H       1  ZINC001060733018    0.0800
     31 H31        -8.9863   -0.2496   52.5641 H       1  ZINC001060733018    0.0700
     32 H32        -7.9582   -1.0643   53.7672 H       1  ZINC001060733018    0.0700
     33 H33       -10.2749   -1.9458   53.8333 H       1  ZINC001060733018    0.0700
     34 H34       -10.8897   -0.3062   54.1522 H       1  ZINC001060733018    0.0600
     35 H35       -11.8372   -1.6977   55.9683 H       1  ZINC001060733018    0.4000
     36 H36       -13.3607   -2.7261   56.5340 H       1  ZINC001060733018    0.0700
     37 H37       -12.4692   -4.2633   56.6253 H       1  ZINC001060733018    0.0700
     38 H38       -14.8517   -4.6505   57.0893 H       1  ZINC001060733018    0.0700
     39 H39       -13.8935   -4.9438   58.5604 H       1  ZINC001060733018    0.0700
     40 H40       -15.4420   -2.3983   57.8899 H       1  ZINC001060733018    0.0700
     41 H41       -15.8810   -3.6078   59.1227 H       1  ZINC001060733018    0.0700
     42 H42       -14.6991   -3.8704   61.2469 H       1  ZINC001060733018    0.0900
     43 H43       -13.1344   -2.9439   61.5553 H       1  ZINC001060733018    0.0900
     44 H44       -14.3430   -0.7568   61.1163 H       1  ZINC001060733018    0.0900
     45 H45       -15.9077   -1.6830   60.8077 H       1  ZINC001060733018    0.0900
     46 H46       -12.2364   -1.4494   59.8411 H       1  ZINC001060733018    0.0700
     47 H47       -13.1105   -1.0176   58.3494 H       1  ZINC001060733018    0.0800
     48 H48        -9.2817    0.0372   57.4920 H       1  ZINC001060733018    0.0700
     49 H49       -10.3097    0.8518   56.2888 H       1  ZINC001060733018    0.0700
     50 H50        -7.3782    0.0938   55.9039 H       1  ZINC001060733018    0.0700
     51 H51        -7.9930    1.7334   56.2228 H       1  ZINC001060733018    0.0700
     52 H52        -6.9466    0.9823   49.3565 H       1  ZINC001060733018    0.1400
@<TRIPOS>BOND
     1     1     2    2
     2     2     3   am
     3     2    25    1
     4     3     4    1
     5     3    28    1
     6     4     5    1
     7     4    29    1
     8     4    30    1
     9     5     6    1
    10     5    24    1
    11     5     7    1
    12     7     8    1
    13     7    31    1
    14     7    32    1
    15     8     9    1
    16     8    33    1
    17     8    34    1
    18     9    10    1
    19     9    11    1
    20     9    23    1
    21    11    12   am
    22    11    35    1
    23    12    13    2
    24    12    14    1
    25    14    15    1
    26    14    22    1
    27    14    16    1
    28    16    17    1
    29    16    36    1
    30    16    37    1
    31    17    18    1
    32    17    38    1
    33    17    39    1
    34    18    19    1
    35    18    40    1
    36    18    41    1
    37    19    21    1
    38    19    20    1
    39    19    22    1
    40    20    21    1
    41    20    42    1
    42    20    43    1
    43    21    44    1
    44    21    45    1
    45    22    46    1
    46    22    47    1
    47    23    24    1
    48    23    48    1
    49    23    49    1
    50    24    50    1
    51    24    51    1
    52    25    26    1
    53    25    27    1
    54    25    52    1
@<TRIPOS>SUBSTRUCTURE
     1 ZINC001060733018        1 TEMP              0 ****  ****    0 ROOT


##########                                Name:    ZINC000151303733
##########                DOCK_Rotatable_Bonds:                   7
##########                         Heavy_Atoms:                  26
##########                    Molecular_Weight:             369.444
##########                DOCK_Rotatable_Bonds:                   7
##########                       Formal_Charge:        -1.93715e-07
##########                     HBond_Acceptors:                   7
##########                        HBond_Donors:                   2
##########                         Heavy_Atoms:                  26
##########                          Grid_Score:          -28.536304
##########                     Grid_vdw_energy:          -27.277521
##########                      Grid_es_energy:           -1.258784
##########           Internal_energy_repulsive:            7.278362

@<TRIPOS>MOLECULE
ZINC000151303733
 45 48 1 0 0
SMALL
USER_CHARGES


@<TRIPOS>ATOM
      1 C1         -8.5154    2.9506   64.0301 C.3     1  ZINC000151303733   -0.1000
      2 C2         -8.6941    1.8221   65.0127 C.2     1  ZINC000151303733   -0.1200
      3 C3         -9.0484    2.0254   66.2822 C.2     1  ZINC000151303733   -0.2000
      4 S4         -9.1580    0.4839   67.1216 S.3     1  ZINC000151303733    0.1200
      5 C5         -8.7028   -0.3811   65.6596 C.2     1  ZINC000151303733   -0.2400
      6 C6         -8.5079    0.4916   64.6641 C.2     1  ZINC000151303733    0.1200
      7 N7         -8.1338    0.0922   63.3676 N.am    1  ZINC000151303733   -0.6400
      8 C8         -9.0675   -0.3538   62.5040 C.2     1  ZINC000151303733    0.5100
      9 O9        -10.2305   -0.4112   62.8445 O.2     1  ZINC000151303733   -0.5100
     10 C10        -8.6669   -0.7814   61.1157 C.3     1  ZINC000151303733    0.1000
     11 N11        -9.7575   -0.4912   60.1815 N.am    1  ZINC000151303733   -0.7100
     12 C12       -10.4707   -1.5005   59.6438 C.2     1  ZINC000151303733    0.5200
     13 O13       -10.2087   -2.6490   59.9322 O.2     1  ZINC000151303733   -0.5100
     14 C14       -11.5937   -1.2019   58.6844 C.3     1  ZINC000151303733    0.1600
     15 H15       -11.9317   -0.1736   58.8123 H       1  ZINC000151303733    0.1300
     16 C16       -12.7389   -2.1563   58.9137 C.ar    1  ZINC000151303733   -0.0900
     17 C17       -13.5492   -2.4133   59.9948 C.ar    1  ZINC000151303733   -0.0900
     18 C18       -14.5423   -3.3745   59.9020 C.ar    1  ZINC000151303733   -0.0800
     19 C19       -14.7220   -4.0774   58.7241 C.ar    1  ZINC000151303733   -0.1200
     20 C20       -13.9145   -3.8273   57.6335 C.ar    1  ZINC000151303733   -0.0400
     21 C21       -12.9117   -2.8603   57.7194 C.ar    1  ZINC000151303733   -0.1500
     22 C22       -11.9112   -2.3771   56.7486 C.2     1  ZINC000151303733    0.5600
     23 O23       -11.7934   -2.7866   55.6103 O.2     1  ZINC000151303733   -0.5100
     24 N24       -11.1478   -1.4180   57.3032 N.am    1  ZINC000151303733   -0.5700
     25 C25       -10.0526   -0.7079   56.6378 C.3     1  ZINC000151303733    0.0900
     26 C26       -10.3903    0.0865   55.3745 C.3     1  ZINC000151303733   -0.1800
     27 C27       -10.0743    0.8214   56.6787 C.3     1  ZINC000151303733   -0.1900
     28 H28        -9.4638    3.1524   63.5321 H       1  ZINC000151303733    0.0700
     29 H29        -8.1855    3.8445   64.5593 H       1  ZINC000151303733    0.0700
     30 H30        -7.7677    2.6710   63.2878 H       1  ZINC000151303733    0.0600
     31 H31        -9.2388    2.9907   66.7277 H       1  ZINC000151303733    0.1700
     32 H32        -8.6006   -1.4531   65.5768 H       1  ZINC000151303733    0.2000
     33 H33        -7.2039    0.1380   63.0955 H       1  ZINC000151303733    0.4200
     34 H34        -7.7732   -0.2365   60.8114 H       1  ZINC000151303733    0.1100
     35 H35        -8.4593   -1.8514   61.1107 H       1  ZINC000151303733    0.1100
     36 H36        -9.9663    0.4273   59.9500 H       1  ZINC000151303733    0.4100
     37 H37       -13.4111   -1.8664   60.9158 H       1  ZINC000151303733    0.1300
     38 H38       -15.1778   -3.5759   60.7516 H       1  ZINC000151303733    0.1400
     39 H39       -15.4978   -4.8259   58.6581 H       1  ZINC000151303733    0.1400
     40 H40       -14.0584   -4.3782   56.7157 H       1  ZINC000151303733    0.1400
     41 H41        -9.0803   -1.1988   56.6791 H       1  ZINC000151303733    0.1400
     42 H42        -9.6401    0.1182   54.5844 H       1  ZINC000151303733    0.1000
     43 H43       -11.4272    0.0807   55.0385 H       1  ZINC000151303733    0.1300
     44 H44       -10.9033    1.2992   57.2007 H       1  ZINC000151303733    0.1000
     45 H45        -9.1162    1.3366   56.7466 H       1  ZINC000151303733    0.1000
@<TRIPOS>BOND
     1     1     2    1
     2     1    28    1
     3     1    29    1
     4     1    30    1
     5     2     6    1
     6     2     3    2
     7     3     4    1
     8     3    31    1
     9     4     5    1
    10     5     6    2
    11     5    32    1
    12     6     7    1
    13     7     8   am
    14     7    33    1
    15     8     9    2
    16     8    10    1
    17    10    11    1
    18    10    34    1
    19    10    35    1
    20    11    12   am
    21    11    36    1
    22    12    13    2
    23    12    14    1
    24    14    15    1
    25    14    24    1
    26    14    16    1
    27    16    21   ar
    28    16    17   ar
    29    17    18   ar
    30    17    37    1
    31    18    19   ar
    32    18    38    1
    33    19    20   ar
    34    19    39    1
    35    20    21   ar
    36    20    40    1
    37    21    22    1
    38    22    23    2
    39    22    24   am
    40    24    25    1
    41    25    27    1
    42    25    26    1
    43    25    41    1
    44    26    27    1
    45    26    42    1
    46    26    43    1
    47    27    44    1
    48    27    45    1
@<TRIPOS>SUBSTRUCTURE
     1 ZINC000151303733        1 TEMP              0 ****  ****    0 ROOT


##########                                Name:    ZINC000790735374
##########                DOCK_Rotatable_Bonds:                   5
##########                         Heavy_Atoms:                  25
##########                    Molecular_Weight:             353.445
##########                DOCK_Rotatable_Bonds:                   5
##########                       Formal_Charge:                   0
##########                     HBond_Acceptors:                   6
##########                        HBond_Donors:                   1
##########                         Heavy_Atoms:                  25
##########                          Grid_Score:          -28.527060
##########                     Grid_vdw_energy:          -28.081114
##########                      Grid_es_energy:           -0.445947
##########           Internal_energy_repulsive:            9.504386

@<TRIPOS>MOLECULE
ZINC000790735374
 44 47 1 0 0
SMALL
USER_CHARGES


@<TRIPOS>ATOM
      1 O1         -8.9088   -0.7590   54.5572 O.2     1  ZINC000790735374   -0.5100
      2 C2         -8.9063   -0.1531   55.6078 C.2     1  ZINC000790735374    0.5000
      3 N3         -9.6584   -0.5878   56.6382 N.am    1  ZINC000790735374   -0.7200
      4 C4        -10.4838   -1.7887   56.4872 C.3     1  ZINC000790735374    0.1400
      5 C5        -10.5812   -2.5130   57.8313 C.3     1  ZINC000790735374   -0.0300
      6 H6         -9.8196   -3.2915   57.8773 H       1  ZINC000790735374    0.1100
      7 S7        -10.3064   -1.3254   59.1737 S.3     1  ZINC000790735374   -0.2400
      8 C8        -10.8806   -2.2895   60.6074 C.3     1  ZINC000790735374   -0.0800
      9 C9        -12.3673   -2.5549   60.4221 C.3     1  ZINC000790735374   -0.0800
     10 C10       -12.7056   -3.1781   59.0978 C.ar    1  ZINC000790735374   -0.0700
     11 C11       -13.9339   -3.8471   59.0688 C.ar    1  ZINC000790735374   -0.1200
     12 C12       -14.3938   -4.4564   57.9251 C.ar    1  ZINC000790735374   -0.1100
     13 C13       -13.6303   -4.4080   56.7736 C.ar    1  ZINC000790735374   -0.1200
     14 C14       -12.4182   -3.7567   56.7969 C.ar    1  ZINC000790735374   -0.1100
     15 C15       -11.9462   -3.1422   57.9613 C.ar    1  ZINC000790735374   -0.0800
     16 C16        -8.0572    1.0823   55.7632 C.3     1  ZINC000790735374    0.0300
     17 H17        -7.5687    1.0974   56.7375 H       1  ZINC000790735374    0.1500
     18 C18        -7.0187    1.1879   54.6211 C.3     1  ZINC000790735374   -0.1400
     19 C19        -7.7310    2.0633   53.6076 C.2     1  ZINC000790735374    0.1200
     20 C20        -7.3473    2.2363   52.1924 C.ar    1  ZINC000790735374   -0.1000
     21 C21        -8.1040    3.0537   51.3444 C.ar    1  ZINC000790735374   -0.0400
     22 C22        -7.7013    3.1826   50.0266 C.ar    1  ZINC000790735374   -0.1700
     23 C23        -6.5751    2.5065   49.5936 C.ar    1  ZINC000790735374    0.1200
     24 N24        -5.8809    1.7427   50.4153 N.ar    1  ZINC000790735374   -0.4800
     25 C25        -6.2201    1.5921   51.6787 C.ar    1  ZINC000790735374    0.1400
     26 N26        -8.7304    2.6311   54.1950 N.2     1  ZINC000790735374   -0.2700
     27 O27        -8.8406    2.2758   55.5601 O.3     1  ZINC000790735374   -0.1600
     28 H28        -9.6534   -0.1055   57.4798 H       1  ZINC000790735374    0.4100
     29 H29       -11.4820   -1.5041   56.1547 H       1  ZINC000790735374    0.0800
     30 H30       -10.0302   -2.4509   55.7497 H       1  ZINC000790735374    0.0900
     31 H31       -10.3400   -3.2347   60.6574 H       1  ZINC000790735374    0.0900
     32 H32       -10.7182   -1.7214   61.5235 H       1  ZINC000790735374    0.1100
     33 H33       -12.7045   -3.2201   61.2171 H       1  ZINC000790735374    0.0900
     34 H34       -12.9039   -1.6103   60.5104 H       1  ZINC000790735374    0.0900
     35 H35       -14.5348   -3.8861   59.9654 H       1  ZINC000790735374    0.1200
     36 H36       -15.3442   -4.9694   57.9265 H       1  ZINC000790735374    0.1300
     37 H37       -13.9811   -4.8764   55.8659 H       1  ZINC000790735374    0.1300
     38 H38       -11.8214   -3.7174   55.8977 H       1  ZINC000790735374    0.1300
     39 H39        -6.1049    1.6673   54.9720 H       1  ZINC000790735374    0.1200
     40 H40        -6.8044    0.2052   54.2008 H       1  ZINC000790735374    0.1100
     41 H41        -8.9797    3.5700   51.7090 H       1  ZINC000790735374    0.1500
     42 H42        -8.2608    3.8044   49.3435 H       1  ZINC000790735374    0.1500
     43 H43        -6.2590    2.6052   48.5656 H       1  ZINC000790735374    0.1600
     44 H44        -5.6264    0.9585   52.3208 H       1  ZINC000790735374    0.1600
@<TRIPOS>BOND
     1     1     2    2
     2     2     3   am
     3     2    16    1
     4     3     4    1
     5     3    28    1
     6     4     5    1
     7     4    29    1
     8     4    30    1
     9     5     6    1
    10     5    15    1
    11     5     7    1
    12     7     8    1
    13     8     9    1
    14     8    31    1
    15     8    32    1
    16     9    10    1
    17     9    33    1
    18     9    34    1
    19    10    15   ar
    20    10    11   ar
    21    11    12   ar
    22    11    35    1
    23    12    13   ar
    24    12    36    1
    25    13    14   ar
    26    13    37    1
    27    14    15   ar
    28    14    38    1
    29    16    17    1
    30    16    27    1
    31    16    18    1
    32    18    19    1
    33    18    39    1
    34    18    40    1
    35    19    20    1
    36    19    26    2
    37    20    25   ar
    38    20    21   ar
    39    21    22   ar
    40    21    41    1
    41    22    23   ar
    42    22    42    1
    43    23    24   ar
    44    23    43    1
    45    24    25   ar
    46    25    44    1
    47    26    27    1
@<TRIPOS>SUBSTRUCTURE
     1 ZINC000790735374        1 TEMP              0 ****  ****    0 ROOT


##########                                Name:    ZINC000951315041
##########                DOCK_Rotatable_Bonds:                   5
##########                         Heavy_Atoms:                  25
##########                    Molecular_Weight:             340.382
##########                DOCK_Rotatable_Bonds:                   5
##########                       Formal_Charge:          0.00999974
##########                     HBond_Acceptors:                   7
##########                        HBond_Donors:                   1
##########                         Heavy_Atoms:                  25
##########                          Grid_Score:          -28.526045
##########                     Grid_vdw_energy:          -28.665449
##########                      Grid_es_energy:            0.139404
##########           Internal_energy_repulsive:           10.469207

@<TRIPOS>MOLECULE
ZINC000951315041
 45 47 1 0 0
SMALL
USER_CHARGES


@<TRIPOS>ATOM
      1 C1        -13.8696   -5.6263   57.0505 C.3     1  ZINC000951315041    0.0500
      2 N2        -13.3838   -4.2996   57.4376 N.am    1  ZINC000951315041   -0.4900
      3 C3        -12.4057   -3.7169   56.7196 C.2     1  ZINC000951315041    0.1700
      4 C4        -11.9326   -2.4678   57.0663 C.2     1  ZINC000951315041   -0.2400
      5 C5        -10.8609   -1.8336   56.2766 C.2     1  ZINC000951315041    0.5800
      6 O6         -9.7247   -2.2624   56.3388 O.2     1  ZINC000951315041   -0.5200
      7 N7        -11.1407   -0.7787   55.4858 N.am    1  ZINC000951315041   -0.6000
      8 C8        -12.5086   -0.2493   55.4001 C.3     1  ZINC000951315041    0.1100
      9 C9        -12.9255   -0.1968   53.9269 C.3     1  ZINC000951315041   -0.1300
     10 C10       -11.8900    0.6063   53.1362 C.3     1  ZINC000951315041   -0.1300
     11 C11       -10.5276   -0.0847   53.2282 C.3     1  ZINC000951315041    0.1300
     12 H12       -10.6066   -1.0986   52.8362 H       1  ZINC000951315041    0.1000
     13 N13        -9.5443    0.6671   52.4446 N.am    1  ZINC000951315041   -0.7200
     14 C14        -8.4396    0.0507   51.9795 C.2     1  ZINC000951315041    0.5700
     15 O15        -8.2586   -1.1287   52.2114 O.2     1  ZINC000951315041   -0.5200
     16 C16        -7.4481    0.8090   51.1872 C.ar    1  ZINC000951315041   -0.1900
     17 C17        -7.6882    2.1422   50.8345 C.ar    1  ZINC000951315041   -0.0100
     18 C18        -6.7280    2.8075   50.0925 C.ar    1  ZINC000951315041   -0.1800
     19 C19        -5.5729    2.1406   49.7267 C.ar    1  ZINC000951315041    0.1300
     20 N20        -5.3736    0.8830   50.0732 N.ar    1  ZINC000951315041   -0.4900
     21 C21        -6.2543    0.2094   50.7833 C.ar    1  ZINC000951315041    0.1400
     22 C22       -10.0824   -0.1324   54.6978 C.3     1  ZINC000951315041    0.1000
     23 C23       -12.4844   -1.7997   58.1862 C.2     1  ZINC000951315041    0.0100
     24 C24       -13.4719   -2.4078   58.8962 C.2     1  ZINC000951315041   -0.2300
     25 C25       -13.9260   -3.6804   58.5019 C.2     1  ZINC000951315041    0.5100
     26 O26       -14.8118   -4.2298   59.1352 O.2     1  ZINC000951315041   -0.5400
     27 H27       -14.6586   -5.9382   57.7349 H       1  ZINC000951315041    0.1100
     28 H28       -14.2641   -5.5868   56.0351 H       1  ZINC000951315041    0.0800
     29 H29       -13.0478   -6.3410   57.0936 H       1  ZINC000951315041    0.0800
     30 H30       -11.9882   -4.2306   55.8663 H       1  ZINC000951315041    0.1700
     31 H31       -13.1879   -0.9014   55.9490 H       1  ZINC000951315041    0.1000
     32 H32       -12.5393    0.7541   55.8246 H       1  ZINC000951315041    0.0700
     33 H33       -12.9820   -1.2097   53.5284 H       1  ZINC000951315041    0.0700
     34 H34       -13.9005    0.2831   53.8416 H       1  ZINC000951315041    0.0900
     35 H35       -12.1971    0.6660   52.0921 H       1  ZINC000951315041    0.0800
     36 H36       -11.8162    1.6116   53.5510 H       1  ZINC000951315041    0.0700
     37 H37        -9.6881    1.6086   52.2605 H       1  ZINC000951315041    0.4000
     38 H38        -8.5996    2.6387   51.1334 H       1  ZINC000951315041    0.1500
     39 H39        -6.8792    3.8366   49.8019 H       1  ZINC000951315041    0.1500
     40 H40        -4.8219    2.6574   49.1476 H       1  ZINC000951315041    0.1600
     41 H41        -6.0552   -0.8187   51.0478 H       1  ZINC000951315041    0.1600
     42 H42        -9.9153    0.8812   55.0622 H       1  ZINC000951315041    0.0700
     43 H43        -9.1616   -0.7096   54.7821 H       1  ZINC000951315041    0.0900
     44 H44       -12.1261   -0.8219   58.4724 H       1  ZINC000951315041    0.1400
     45 H45       -13.9067   -1.9165   59.7541 H       1  ZINC000951315041    0.1600
@<TRIPOS>BOND
     1     1     2    1
     2     1    27    1
     3     1    28    1
     4     1    29    1
     5     2    25   am
     6     2     3    1
     7     3     4    2
     8     3    30    1
     9     4     5    1
    10     4    23    1
    11     5     6    2
    12     5     7   am
    13     7    22    1
    14     7     8    1
    15     8     9    1
    16     8    31    1
    17     8    32    1
    18     9    10    1
    19     9    33    1
    20     9    34    1
    21    10    11    1
    22    10    35    1
    23    10    36    1
    24    11    12    1
    25    11    13    1
    26    11    22    1
    27    13    14   am
    28    13    37    1
    29    14    15    2
    30    14    16    1
    31    16    21   ar
    32    16    17   ar
    33    17    18   ar
    34    17    38    1
    35    18    19   ar
    36    18    39    1
    37    19    20   ar
    38    19    40    1
    39    20    21   ar
    40    21    41    1
    41    22    42    1
    42    22    43    1
    43    23    24    2
    44    23    44    1
    45    24    25    1
    46    24    45    1
    47    25    26    2
@<TRIPOS>SUBSTRUCTURE
     1 ZINC000951315041        1 TEMP              0 ****  ****    0 ROOT


##########                                Name:    ZINC000464867530
##########                DOCK_Rotatable_Bonds:                   8
##########                         Heavy_Atoms:                  30
##########                    Molecular_Weight:              422.49
##########                DOCK_Rotatable_Bonds:                   8
##########                       Formal_Charge:         -0.00999994
##########                     HBond_Acceptors:                   7
##########                        HBond_Donors:                   0
##########                         Heavy_Atoms:                  30
##########                          Grid_Score:          -28.492828
##########                     Grid_vdw_energy:          -28.602852
##########                      Grid_es_energy:            0.110024
##########           Internal_energy_repulsive:           31.046078

@<TRIPOS>MOLECULE
ZINC000464867530
 59 62 1 0 0
SMALL
USER_CHARGES


@<TRIPOS>ATOM
      1 C1         -7.0432    2.3898   57.5284 C.3     1  ZINC000464867530   -0.1500
      2 C2         -8.4676    2.8083   57.8986 C.3     1  ZINC000464867530   -0.1400
      3 C3         -8.9150    2.0450   59.1470 C.3     1  ZINC000464867530    0.0900
      4 N4         -9.2833    0.6763   58.7764 N.am    1  ZINC000464867530   -0.6100
      5 C5         -8.3660   -0.4307   59.0580 C.3     1  ZINC000464867530    0.0700
      6 C6         -8.6453   -0.9811   60.4580 C.3     1  ZINC000464867530    0.4300
      7 F7        -10.0197   -1.1936   60.6099 F       1  ZINC000464867530   -0.1700
      8 F8         -7.9647   -2.1915   60.6276 F       1  ZINC000464867530   -0.1800
      9 F9         -8.2068   -0.0613   61.4166 F       1  ZINC000464867530   -0.1800
     10 C10       -10.4660    0.4356   58.1767 C.2     1  ZINC000464867530    0.5300
     11 O11       -11.2254    1.3522   57.9437 O.2     1  ZINC000464867530   -0.5100
     12 C12       -10.8449   -0.9722   57.7955 C.3     1  ZINC000464867530   -0.1200
     13 H13       -10.2891   -1.6783   58.4126 H       1  ZINC000464867530    0.1000
     14 C14       -10.5112   -1.2096   56.3210 C.3     1  ZINC000464867530   -0.1200
     15 C15       -10.8653   -2.6493   55.9414 C.3     1  ZINC000464867530   -0.1300
     16 C16       -12.3683   -2.8703   56.1386 C.3     1  ZINC000464867530    0.1000
     17 N17       -12.7232   -2.5048   57.5168 N.am    1  ZINC000464867530   -0.6100
     18 C18       -13.3805   -3.3739   58.3100 C.2     1  ZINC000464867530    0.5500
     19 O19       -13.6835   -4.4699   57.8885 O.2     1  ZINC000464867530   -0.5300
     20 C20       -13.7390   -2.9836   59.7208 C.3     1  ZINC000464867530   -0.1700
     21 H21       -12.9159   -2.6072   60.3282 H       1  ZINC000464867530    0.1300
     22 C22       -14.8228   -3.8024   60.4275 C.3     1  ZINC000464867530   -0.1300
     23 C23       -15.1198   -2.3827   59.9558 C.3     1  ZINC000464867530   -0.0600
     24 C24       -16.0811   -2.1168   58.7854 C.3     1  ZINC000464867530   -0.0900
     25 C25       -16.2616   -0.5841   58.8525 C.3     1  ZINC000464867530   -0.0800
     26 C26       -15.9953   -0.2150   60.2967 C.ar    1  ZINC000464867530   -0.0900
     27 C27       -16.3051    0.9365   60.9997 C.ar    1  ZINC000464867530   -0.1100
     28 C28       -15.9571    1.0541   62.3314 C.ar    1  ZINC000464867530   -0.1100
     29 C29       -15.2968    0.0185   62.9653 C.ar    1  ZINC000464867530   -0.1200
     30 C30       -14.9866   -1.1318   62.2661 C.ar    1  ZINC000464867530   -0.1000
     31 C31       -15.3345   -1.2527   60.9314 C.ar    1  ZINC000464867530   -0.0700
     32 C32       -12.3476   -1.1745   58.0145 C.3     1  ZINC000464867530    0.1300
     33 H33        -6.3707    2.6190   58.3549 H       1  ZINC000464867530    0.0600
     34 H34        -7.0199    1.3189   57.3271 H       1  ZINC000464867530    0.0600
     35 H35        -6.7244    2.9336   56.6390 H       1  ZINC000464867530    0.0600
     36 H36        -8.4909    3.8793   58.0999 H       1  ZINC000464867530    0.0700
     37 H37        -9.1401    2.5792   57.0721 H       1  ZINC000464867530    0.0700
     38 H38        -8.0988    2.0189   59.8688 H       1  ZINC000464867530    0.0900
     39 H39        -9.7760    2.5457   59.5899 H       1  ZINC000464867530    0.0900
     40 H40        -8.5127   -1.2205   58.3212 H       1  ZINC000464867530    0.1300
     41 H41        -7.3378   -0.0726   59.0068 H       1  ZINC000464867530    0.1200
     42 H42       -11.0856   -0.5195   55.7029 H       1  ZINC000464867530    0.0800
     43 H43        -9.4465   -1.0425   56.1581 H       1  ZINC000464867530    0.0800
     44 H44       -10.6057   -2.8246   54.8974 H       1  ZINC000464867530    0.0900
     45 H45       -10.3098   -3.3400   56.5758 H       1  ZINC000464867530    0.0700
     46 H46       -12.9243   -2.2449   55.4401 H       1  ZINC000464867530    0.0700
     47 H47       -12.6094   -3.9190   55.9651 H       1  ZINC000464867530    0.0900
     48 H48       -15.2764   -4.6233   59.8720 H       1  ZINC000464867530    0.1100
     49 H49       -14.7130   -3.9639   61.4999 H       1  ZINC000464867530    0.1100
     50 H50       -15.6306   -2.4133   57.8382 H       1  ZINC000464867530    0.0700
     51 H51       -17.0319   -2.6267   58.9406 H       1  ZINC000464867530    0.0800
     52 H52       -15.5441   -0.0899   58.1976 H       1  ZINC000464867530    0.0800
     53 H53       -17.2794   -0.3108   58.5741 H       1  ZINC000464867530    0.0800
     54 H54       -16.8206    1.7463   60.5050 H       1  ZINC000464867530    0.1200
     55 H55       -16.2003    1.9542   62.8764 H       1  ZINC000464867530    0.1300
     56 H56       -15.0233    0.1086   64.0062 H       1  ZINC000464867530    0.1300
     57 H57       -14.4702   -1.9400   62.7627 H       1  ZINC000464867530    0.1200
     58 H58       -12.5753   -1.1045   59.0782 H       1  ZINC000464867530    0.1000
     59 H59       -12.9016   -0.4104   57.4692 H       1  ZINC000464867530    0.0800
@<TRIPOS>BOND
     1     1     2    1
     2     1    33    1
     3     1    34    1
     4     1    35    1
     5     2     3    1
     6     2    36    1
     7     2    37    1
     8     3     4    1
     9     3    38    1
    10     3    39    1
    11     4     5    1
    12     4    10   am
    13     5     6    1
    14     5    40    1
    15     5    41    1
    16     6     7    1
    17     6     8    1
    18     6     9    1
    19    10    11    2
    20    10    12    1
    21    12    13    1
    22    12    32    1
    23    12    14    1
    24    14    15    1
    25    14    42    1
    26    14    43    1
    27    15    16    1
    28    15    44    1
    29    15    45    1
    30    16    17    1
    31    16    46    1
    32    16    47    1
    33    17    18   am
    34    17    32    1
    35    18    19    2
    36    18    20    1
    37    20    21    1
    38    20    23    1
    39    20    22    1
    40    22    23    1
    41    22    48    1
    42    22    49    1
    43    23    31    1
    44    23    24    1
    45    24    25    1
    46    24    50    1
    47    24    51    1
    48    25    26    1
    49    25    52    1
    50    25    53    1
    51    26    31   ar
    52    26    27   ar
    53    27    28   ar
    54    27    54    1
    55    28    29   ar
    56    28    55    1
    57    29    30   ar
    58    29    56    1
    59    30    31   ar
    60    30    57    1
    61    32    58    1
    62    32    59    1
@<TRIPOS>SUBSTRUCTURE
     1 ZINC000464867530        1 TEMP              0 ****  ****    0 ROOT


##########                                Name:    ZINC001045463759
##########                DOCK_Rotatable_Bonds:                   6
##########                         Heavy_Atoms:                  24
##########                    Molecular_Weight:             336.385
##########                DOCK_Rotatable_Bonds:                   6
##########                       Formal_Charge:          1.3411e-07
##########                     HBond_Acceptors:                   7
##########                        HBond_Donors:                   2
##########                         Heavy_Atoms:                  24
##########                          Grid_Score:          -28.491238
##########                     Grid_vdw_energy:          -27.854618
##########                      Grid_es_energy:           -0.636620
##########           Internal_energy_repulsive:            8.948368

@<TRIPOS>MOLECULE
ZINC001045463759
 46 49 1 0 0
SMALL
USER_CHARGES


@<TRIPOS>ATOM
      1 O1         -0.6916    3.3899   47.1481 O.2     1  ZINC001045463759   -0.5100
      2 C2         -1.3854    2.4042   47.2821 C.2     1  ZINC001045463759    0.5400
      3 N3         -2.0972    2.2300   48.4132 N.am    1  ZINC001045463759   -0.7200
      4 C4         -2.0280    3.2281   49.4834 C.3     1  ZINC001045463759    0.1400
      5 H5         -2.0351    4.2277   49.0488 H       1  ZINC001045463759    0.1000
      6 C6         -0.7395    3.0291   50.2839 C.3     1  ZINC001045463759   -0.1300
      7 C7         -0.6672    4.0715   51.4015 C.3     1  ZINC001045463759   -0.1200
      8 C8         -1.8737    3.9099   52.3284 C.3     1  ZINC001045463759   -0.1200
      9 C9         -3.1622    4.1089   51.5279 C.3     1  ZINC001045463759   -0.1300
     10 C10        -3.2345    3.0666   50.4103 C.3     1  ZINC001045463759    0.1500
     11 H11        -3.2274    2.0669   50.8449 H       1  ZINC001045463759    0.0900
     12 N12        -4.4683    3.2571   49.6438 N.pl3   1  ZINC001045463759   -0.7100
     13 C13        -5.6810    2.8406   50.1684 C.ar    1  ZINC001045463759    0.4400
     14 C14        -6.8659    3.4911   49.8189 C.ar    1  ZINC001045463759   -0.3000
     15 C15        -8.0492    3.0382   50.3687 C.ar    1  ZINC001045463759    0.1800
     16 N16        -8.0221    2.0089   51.2035 N.ar    1  ZINC001045463759   -0.5600
     17 C17        -6.8868    1.4160   51.5135 C.ar    1  ZINC001045463759    0.4000
     18 C18        -6.9062    0.2493   52.4673 C.3     1  ZINC001045463759   -0.1100
     19 C19        -8.1680   -0.6155   52.5000 C.3     1  ZINC001045463759   -0.1500
     20 C20        -6.8859   -1.1567   51.8642 C.3     1  ZINC001045463759   -0.1500
     21 N21        -5.7358    1.8111   51.0086 N.ar    1  ZINC001045463759   -0.5700
     22 C22        -1.4566    1.3775   46.1813 C.3     1  ZINC001045463759   -0.2000
     23 H23        -1.9526    0.4425   46.4420 H       1  ZINC001045463759    0.1500
     24 C24        -1.6198    1.8882   44.7483 C.3     1  ZINC001045463759   -0.1500
     25 C25        -0.2803    1.3050   45.2056 C.3     1  ZINC001045463759    0.2300
     26 F26         0.7789    2.1974   45.4033 F       1  ZINC001045463759   -0.1400
     27 F27         0.0761    0.0440   44.7158 F       1  ZINC001045463759   -0.1500
     28 H28        -2.6552    1.4436   48.5189 H       1  ZINC001045463759    0.4000
     29 H29        -0.7324    2.0296   50.7184 H       1  ZINC001045463759    0.0700
     30 H30         0.1201    3.1443   49.6235 H       1  ZINC001045463759    0.0800
     31 H31         0.2508    3.9298   51.9719 H       1  ZINC001045463759    0.0700
     32 H32        -0.6742    5.0712   50.9669 H       1  ZINC001045463759    0.0700
     33 H33        -1.8666    2.9104   52.7630 H       1  ZINC001045463759    0.0700
     34 H34        -1.8222    4.6526   53.1246 H       1  ZINC001045463759    0.0700
     35 H35        -4.0218    3.9938   52.1883 H       1  ZINC001045463759    0.0700
     36 H36        -3.1693    5.1085   51.0934 H       1  ZINC001045463759    0.0700
     37 H37        -4.4361    3.6748   48.7690 H       1  ZINC001045463759    0.4100
     38 H38        -6.8574    4.3279   49.1361 H       1  ZINC001045463759    0.1400
     39 H39        -8.9852    3.5171   50.1218 H       1  ZINC001045463759    0.1700
     40 H40        -6.3755    0.4015   53.4071 H       1  ZINC001045463759    0.1300
     41 H41        -8.4677   -1.0323   53.4616 H       1  ZINC001045463759    0.1000
     42 H42        -8.9840   -0.3405   51.8317 H       1  ZINC001045463759    0.1100
     43 H43        -6.8585   -1.2378   50.7776 H       1  ZINC001045463759    0.1000
     44 H44        -6.3422   -1.9295   52.4074 H       1  ZINC001045463759    0.1000
     45 H45        -2.2228    1.2890   44.0661 H       1  ZINC001045463759    0.1400
     46 H46        -1.6756    2.9668   44.6017 H       1  ZINC001045463759    0.1300
@<TRIPOS>BOND
     1     1     2    2
     2     2     3   am
     3     2    22    1
     4     3     4    1
     5     3    28    1
     6     4     5    1
     7     4    10    1
     8     4     6    1
     9     6     7    1
    10     6    29    1
    11     6    30    1
    12     7     8    1
    13     7    31    1
    14     7    32    1
    15     8     9    1
    16     8    33    1
    17     8    34    1
    18     9    10    1
    19     9    35    1
    20     9    36    1
    21    10    11    1
    22    10    12    1
    23    12    13    1
    24    12    37    1
    25    13    21   ar
    26    13    14   ar
    27    14    15   ar
    28    14    38    1
    29    15    16   ar
    30    15    39    1
    31    16    17   ar
    32    17    18    1
    33    17    21   ar
    34    18    20    1
    35    18    19    1
    36    18    40    1
    37    19    20    1
    38    19    41    1
    39    19    42    1
    40    20    43    1
    41    20    44    1
    42    22    23    1
    43    22    25    1
    44    22    24    1
    45    24    25    1
    46    24    45    1
    47    24    46    1
    48    25    26    1
    49    25    27    1
@<TRIPOS>SUBSTRUCTURE
     1 ZINC001045463759        1 TEMP              0 ****  ****    0 ROOT


##########                                Name:    ZINC000763800048
##########                DOCK_Rotatable_Bonds:                   8
##########                         Heavy_Atoms:                  23
##########                    Molecular_Weight:             329.783
##########                DOCK_Rotatable_Bonds:                   8
##########                       Formal_Charge:           0.0199994
##########                     HBond_Acceptors:                   5
##########                        HBond_Donors:                   1
##########                         Heavy_Atoms:                  23
##########                          Grid_Score:          -28.478617
##########                     Grid_vdw_energy:          -27.552582
##########                      Grid_es_energy:           -0.926035
##########           Internal_energy_repulsive:           10.437597

@<TRIPOS>MOLECULE
ZINC000763800048
 39 40 1 0 0
SMALL
USER_CHARGES


@<TRIPOS>ATOM
      1 C1        -14.7798   -0.4559   62.1497 C.3     1  ZINC000763800048    0.0400
      2 O2        -15.6937   -0.5981   61.0303 O.3     1  ZINC000763800048   -0.3600
      3 C3        -15.4848   -1.6324   60.2007 C.2     1  ZINC000763800048    0.4600
      4 O4        -16.2418   -1.8311   59.2803 O.2     1  ZINC000763800048   -0.4900
      5 C5        -14.3060   -2.5459   60.4175 C.3     1  ZINC000763800048   -0.0700
      6 C6        -13.8740   -3.1303   59.0972 C.ar    1  ZINC000763800048   -0.0600
      7 C7        -14.4800   -4.2772   58.6184 C.ar    1  ZINC000763800048   -0.1200
      8 C8        -14.0864   -4.8168   57.4073 C.ar    1  ZINC000763800048   -0.1000
      9 C9        -13.0869   -4.2111   56.6719 C.ar    1  ZINC000763800048   -0.1100
     10 C10       -12.4764   -3.0584   57.1499 C.ar    1  ZINC000763800048    0.1500
     11 N11       -11.4640   -2.4425   56.4078 N.am    1  ZINC000763800048   -0.6700
     12 C12       -11.7811   -1.6088   55.3975 C.2     1  ZINC000763800048    0.5500
     13 O13       -12.9488   -1.3920   55.1311 O.2     1  ZINC000763800048   -0.5200
     14 C14       -10.7215   -0.9642   54.6208 C.2     1  ZINC000763800048   -0.2100
     15 C15        -9.4482   -0.9918   55.0644 C.2     1  ZINC000763800048   -0.0100
     16 C16        -8.3824   -0.3450   54.2826 C.ar    1  ZINC000763800048   -0.0800
     17 C17        -8.2323   -0.6372   52.9230 C.ar    1  ZINC000763800048   -0.0900
     18 C18        -7.2318   -0.0276   52.1969 C.ar    1  ZINC000763800048   -0.1100
     19 C19        -6.3755    0.8721   52.8108 C.ar    1  ZINC000763800048   -0.0200
     20 Cl20       -5.1179    1.6346   51.8886 Cl      1  ZINC000763800048   -0.0600
     21 C21        -6.5185    1.1666   54.1571 C.ar    1  ZINC000763800048   -0.1100
     22 C22        -7.5182    0.5690   54.8942 C.ar    1  ZINC000763800048   -0.0800
     23 C23       -12.8772   -2.5165   58.3642 C.ar    1  ZINC000763800048   -0.1300
     24 H24       -15.0603    0.4171   62.7391 H       1  ZINC000763800048    0.1000
     25 H25       -14.8295   -1.3474   62.7749 H       1  ZINC000763800048    0.0600
     26 H26       -13.7638   -0.3306   61.7757 H       1  ZINC000763800048    0.0600
     27 H27       -13.4820   -1.9791   60.8509 H       1  ZINC000763800048    0.1200
     28 H28       -14.5898   -3.3507   61.0955 H       1  ZINC000763800048    0.1200
     29 H29       -15.2619   -4.7529   59.1916 H       1  ZINC000763800048    0.1200
     30 H30       -14.5612   -5.7132   57.0364 H       1  ZINC000763800048    0.1300
     31 H31       -12.7799   -4.6331   55.7264 H       1  ZINC000763800048    0.1400
     32 H32       -10.5334   -2.6153   56.6201 H       1  ZINC000763800048    0.4100
     33 H33       -10.9591   -0.4663   53.6924 H       1  ZINC000763800048    0.1300
     34 H34        -9.2106   -1.4885   55.9936 H       1  ZINC000763800048    0.1400
     35 H35        -8.8987   -1.3389   52.4433 H       1  ZINC000763800048    0.1400
     36 H36        -7.1148   -0.2522   51.1470 H       1  ZINC000763800048    0.1400
     37 H37        -5.8474    1.8690   54.6291 H       1  ZINC000763800048    0.1400
     38 H38        -7.6287    0.7997   55.9435 H       1  ZINC000763800048    0.1400
     39 H39       -12.4048   -1.6202   58.7384 H       1  ZINC000763800048    0.1300
@<TRIPOS>BOND
     1     1     2    1
     2     1    24    1
     3     1    25    1
     4     1    26    1
     5     2     3    1
     6     3     4    2
     7     3     5    1
     8     5     6    1
     9     5    27    1
    10     5    28    1
    11     6    23   ar
    12     6     7   ar
    13     7     8   ar
    14     7    29    1
    15     8     9   ar
    16     8    30    1
    17     9    10   ar
    18     9    31    1
    19    10    11    1
    20    10    23   ar
    21    11    12   am
    22    11    32    1
    23    12    13    2
    24    12    14    1
    25    14    15    2
    26    14    33    1
    27    15    16    1
    28    15    34    1
    29    16    22   ar
    30    16    17   ar
    31    17    18   ar
    32    17    35    1
    33    18    19   ar
    34    18    36    1
    35    19    20    1
    36    19    21   ar
    37    21    22   ar
    38    21    37    1
    39    22    38    1
    40    23    39    1
@<TRIPOS>SUBSTRUCTURE
     1 ZINC000763800048        1 TEMP              0 ****  ****    0 ROOT


##########                                Name:    ZINC000077537368
##########                DOCK_Rotatable_Bonds:                   5
##########                         Heavy_Atoms:                  27
##########                    Molecular_Weight:             365.478
##########                DOCK_Rotatable_Bonds:                   5
##########                       Formal_Charge:          -0.0400007
##########                     HBond_Acceptors:                   6
##########                        HBond_Donors:                   0
##########                         Heavy_Atoms:                  27
##########                          Grid_Score:          -28.474613
##########                     Grid_vdw_energy:          -28.373129
##########                      Grid_es_energy:           -0.101484
##########           Internal_energy_repulsive:           17.948847

@<TRIPOS>MOLECULE
ZINC000077537368
 54 56 1 0 0
SMALL
USER_CHARGES


@<TRIPOS>ATOM
      1 C1        -11.2268    3.5718   49.0675 C.3     1  ZINC000077537368    0.0800
      2 N2        -12.3067    2.5832   49.1163 N.pl3   1  ZINC000077537368   -0.2600
      3 N3        -12.8858    2.0684   48.0918 N.2     1  ZINC000077537368   -0.2700
      4 C4        -13.8106    1.2172   48.4562 C.2     1  ZINC000077537368    0.0400
      5 C5        -14.6961    0.4201   47.5335 C.3     1  ZINC000077537368    0.0200
      6 C6        -14.8840    1.1838   46.2211 C.3     1  ZINC000077537368   -0.1400
      7 C7        -14.0456   -0.9346   47.2466 C.3     1  ZINC000077537368   -0.1400
      8 C8        -16.0579    0.2018   48.1960 C.3     1  ZINC000077537368   -0.1400
      9 C9        -13.8307    1.1782   49.8523 C.2     1  ZINC000077537368   -0.2000
     10 C10       -12.8475    2.0637   50.2581 C.2     1  ZINC000077537368   -0.0400
     11 C11       -12.4670    2.3875   51.6423 C.2     1  ZINC000077537368    0.5900
     12 O12       -12.6469    3.5096   52.0757 O.2     1  ZINC000077537368   -0.5400
     13 N13       -11.9192    1.4407   52.4296 N.am    1  ZINC000077537368   -0.6000
     14 C14       -11.6874    0.0793   51.9235 C.3     1  ZINC000077537368    0.0800
     15 C15       -10.2330   -0.3066   52.2132 C.3     1  ZINC000077537368    0.0400
     16 N16        -9.9558   -0.1201   53.6437 N.3     1  ZINC000077537368   -0.5300
     17 C17        -8.6276   -0.6401   53.9947 C.3     1  ZINC000077537368    0.0900
     18 C18        -7.5916   -0.0232   53.0907 C.ar    1  ZINC000077537368   -0.0500
     19 C19        -7.2301   -0.6647   51.9192 C.ar    1  ZINC000077537368   -0.1200
     20 C20        -6.2822   -0.1057   51.0873 C.ar    1  ZINC000077537368   -0.0700
     21 C21        -5.6877    1.1105   51.4295 C.ar    1  ZINC000077537368   -0.0300
     22 C22        -4.7034    1.6968   50.5704 C.1     1  ZINC000077537368    0.2500
     23 N23        -3.9225    2.1619   49.8890 N.1     1  ZINC000077537368   -0.4100
     24 C24        -6.0576    1.7526   52.6130 C.ar    1  ZINC000077537368   -0.0700
     25 C25        -7.0106    1.1850   53.4331 C.ar    1  ZINC000077537368   -0.1000
     26 C26       -10.0888    1.2901   54.0328 C.3     1  ZINC000077537368    0.0400
     27 C27       -11.5317    1.7431   53.8159 C.3     1  ZINC000077537368    0.1200
     28 H28       -10.2653    3.0636   49.1414 H       1  ZINC000077537368    0.0800
     29 H29       -11.2771    4.1188   48.1260 H       1  ZINC000077537368    0.1000
     30 H30       -11.3342    4.2686   49.8987 H       1  ZINC000077537368    0.1100
     31 H31       -13.9138    1.3394   45.7492 H       1  ZINC000077537368    0.0600
     32 H32       -15.5245    0.6072   45.5537 H       1  ZINC000077537368    0.0600
     33 H33       -15.3475    2.1489   46.4255 H       1  ZINC000077537368    0.0600
     34 H34       -13.9117   -1.4787   48.1816 H       1  ZINC000077537368    0.0600
     35 H35       -14.6860   -1.5113   46.5792 H       1  ZINC000077537368    0.0600
     36 H36       -13.0754   -0.7791   46.7747 H       1  ZINC000077537368    0.0600
     37 H37       -16.5214    1.1669   48.4004 H       1  ZINC000077537368    0.0600
     38 H38       -16.6984   -0.3748   47.5285 H       1  ZINC000077537368    0.0600
     39 H39       -15.9241   -0.3423   49.1309 H       1  ZINC000077537368    0.0600
     40 H40       -14.4743    0.5811   50.4814 H       1  ZINC000077537368    0.1700
     41 H41       -12.3582   -0.6174   52.4262 H       1  ZINC000077537368    0.0800
     42 H42       -11.8661    0.0530   50.8486 H       1  ZINC000077537368    0.1200
     43 H43       -10.0734   -1.3509   51.9449 H       1  ZINC000077537368    0.0900
     44 H44        -9.5653    0.3259   51.6279 H       1  ZINC000077537368    0.0400
     45 H45        -8.4012   -0.3892   55.0309 H       1  ZINC000077537368    0.0900
     46 H46        -8.6175   -1.7232   53.8726 H       1  ZINC000077537368    0.0500
     47 H47        -7.6907   -1.6053   51.6557 H       1  ZINC000077537368    0.1300
     48 H48        -6.0004   -0.6078   50.1736 H       1  ZINC000077537368    0.1300
     49 H49        -5.6017    2.6934   52.8835 H       1  ZINC000077537368    0.1300
     50 H50        -7.2980    1.6807   54.3485 H       1  ZINC000077537368    0.1400
     51 H51        -9.8248    1.4037   55.0843 H       1  ZINC000077537368    0.1000
     52 H52        -9.4233    1.9002   53.4223 H       1  ZINC000077537368    0.0400
     53 H53       -11.6094    2.8157   53.9938 H       1  ZINC000077537368    0.1000
     54 H54       -12.1905    1.2072   54.4991 H       1  ZINC000077537368    0.0800
@<TRIPOS>BOND
     1     1     2    1
     2     1    28    1
     3     1    29    1
     4     1    30    1
     5     2    10    1
     6     2     3    1
     7     3     4    2
     8     4     5    1
     9     4     9    1
    10     5     6    1
    11     5     7    1
    12     5     8    1
    13     6    31    1
    14     6    32    1
    15     6    33    1
    16     7    34    1
    17     7    35    1
    18     7    36    1
    19     8    37    1
    20     8    38    1
    21     8    39    1
    22     9    10    2
    23     9    40    1
    24    10    11    1
    25    11    12    2
    26    11    13   am
    27    13    27    1
    28    13    14    1
    29    14    15    1
    30    14    41    1
    31    14    42    1
    32    15    16    1
    33    15    43    1
    34    15    44    1
    35    16    17    1
    36    16    26    1
    37    17    18    1
    38    17    45    1
    39    17    46    1
    40    18    25   ar
    41    18    19   ar
    42    19    20   ar
    43    19    47    1
    44    20    21   ar
    45    20    48    1
    46    21    22    1
    47    21    24   ar
    48    22    23    3
    49    24    25   ar
    50    24    49    1
    51    25    50    1
    52    26    27    1
    53    26    51    1
    54    26    52    1
    55    27    53    1
    56    27    54    1
@<TRIPOS>SUBSTRUCTURE
     1 ZINC000077537368        1 TEMP              0 ****  ****    0 ROOT


##########                                Name:    ZINC000521663393
##########                DOCK_Rotatable_Bonds:                   5
##########                         Heavy_Atoms:                  27
##########                    Molecular_Weight:              386.49
##########                DOCK_Rotatable_Bonds:                   5
##########                       Formal_Charge:               -0.02
##########                     HBond_Acceptors:                   6
##########                        HBond_Donors:                   1
##########                         Heavy_Atoms:                  27
##########                          Grid_Score:          -28.458496
##########                     Grid_vdw_energy:          -26.727947
##########                      Grid_es_energy:           -1.730550
##########           Internal_energy_repulsive:           17.426476

@<TRIPOS>MOLECULE
ZINC000521663393
 50 53 1 0 0
SMALL
USER_CHARGES


@<TRIPOS>ATOM
      1 C1          3.1078    2.2935   47.9932 C.3     1  ZINC000521663393   -0.1500
      2 C2          2.0154    1.3347   47.5152 C.3     1  ZINC000521663393    0.0800
      3 H3          2.0264    0.4161   48.1017 H       1  ZINC000521663393    0.0900
      4 O4          2.1676    1.0468   46.1148 O.3     1  ZINC000521663393   -0.2900
      5 C5          0.9379    0.8815   45.5547 C.ar    1  ZINC000521663393    0.1400
      6 C6          0.5768    0.2616   44.3617 C.ar    1  ZINC000521663393   -0.1800
      7 C7         -0.7491    0.2160   43.9751 C.ar    1  ZINC000521663393    0.1400
      8 F8         -1.0912   -0.3869   42.8156 F       1  ZINC000521663393   -0.1300
      9 C9         -1.7288    0.7854   44.7712 C.ar    1  ZINC000521663393   -0.1800
     10 C10        -1.3764    1.3987   45.9602 C.ar    1  ZINC000521663393   -0.0200
     11 C11        -0.0558    1.4418   46.3480 C.ar    1  ZINC000521663393   -0.2000
     12 C12         0.6255    2.0108   47.5813 C.3     1  ZINC000521663393    0.1700
     13 H13         0.7154    3.0948   47.5115 H       1  ZINC000521663393    0.1200
     14 N14        -0.0905    1.6248   48.7998 N.am    1  ZINC000521663393   -0.7200
     15 C15        -0.3529    2.5463   49.7477 C.2     1  ZINC000521663393    0.5300
     16 O16         0.0023    3.6953   49.5914 O.2     1  ZINC000521663393   -0.5000
     17 C17        -1.0878    2.1488   51.0019 C.3     1  ZINC000521663393    0.1200
     18 H18        -0.9092    1.0937   51.2088 H       1  ZINC000521663393    0.0700
     19 C19        -0.5926    2.9784   52.1585 C.ar    1  ZINC000521663393   -0.0900
     20 C20        -1.4908    3.4922   53.0752 C.ar    1  ZINC000521663393   -0.0900
     21 C21        -1.0365    4.2532   54.1360 C.ar    1  ZINC000521663393   -0.1200
     22 C22         0.3159    4.5000   54.2806 C.ar    1  ZINC000521663393   -0.1100
     23 C23         1.2142    3.9853   53.3646 C.ar    1  ZINC000521663393   -0.1200
     24 C24         0.7603    3.2208   52.3060 C.ar    1  ZINC000521663393   -0.1100
     25 N25        -2.5276    2.3750   50.8183 N.3     1  ZINC000521663393   -0.5300
     26 C26        -3.1610    1.2251   50.1689 C.3     1  ZINC000521663393    0.0500
     27 C27        -4.6778    1.2771   50.3818 C.3     1  ZINC000521663393   -0.0700
     28 S28        -5.3185    2.7905   49.6022 S.3     1  ZINC000521663393   -0.2700
     29 C29        -4.2301    4.0659   50.3072 C.3     1  ZINC000521663393   -0.0700
     30 C30        -2.7750    3.6299   50.1046 C.3     1  ZINC000521663393    0.0600
     31 H31         2.9328    2.5521   49.0375 H       1  ZINC000521663393    0.0800
     32 H32         4.0811    1.8128   47.8961 H       1  ZINC000521663393    0.0800
     33 H33         3.0876    3.1988   47.3865 H       1  ZINC000521663393    0.0700
     34 H34         1.3355   -0.1848   43.7360 H       1  ZINC000521663393    0.1400
     35 H35        -2.7639    0.7510   44.4649 H       1  ZINC000521663393    0.1400
     36 H36        -2.1372    1.8438   46.5843 H       1  ZINC000521663393    0.1300
     37 H37        -0.3756    0.7061   48.9244 H       1  ZINC000521663393    0.4000
     38 H38        -2.5474    3.2995   52.9622 H       1  ZINC000521663393    0.1300
     39 H39        -1.7384    4.6552   54.8518 H       1  ZINC000521663393    0.1300
     40 H40         0.6707    5.0950   55.1091 H       1  ZINC000521663393    0.1200
     41 H41         2.2708    4.1784   53.4773 H       1  ZINC000521663393    0.1300
     42 H42         1.4621    2.8188   51.5902 H       1  ZINC000521663393    0.1200
     43 H43        -2.9442    1.2474   49.1010 H       1  ZINC000521663393    0.0500
     44 H44        -2.7665    0.3040   50.5981 H       1  ZINC000521663393    0.1000
     45 H45        -5.1421    0.4041   49.9233 H       1  ZINC000521663393    0.1100
     46 H46        -4.8973    1.2939   51.4494 H       1  ZINC000521663393    0.0900
     47 H47        -4.4019    5.0153   49.7999 H       1  ZINC000521663393    0.1100
     48 H48        -4.4350    4.1743   51.3723 H       1  ZINC000521663393    0.1000
     49 H49        -2.1086    4.4023   50.4886 H       1  ZINC000521663393    0.0800
     50 H50        -2.5850    3.4852   49.0412 H       1  ZINC000521663393    0.0500
@<TRIPOS>BOND
     1     1     2    1
     2     1    31    1
     3     1    32    1
     4     1    33    1
     5     2     3    1
     6     2    12    1
     7     2     4    1
     8     4     5    1
     9     5    11   ar
    10     5     6   ar
    11     6     7   ar
    12     6    34    1
    13     7     8    1
    14     7     9   ar
    15     9    10   ar
    16     9    35    1
    17    10    11   ar
    18    10    36    1
    19    11    12    1
    20    12    13    1
    21    12    14    1
    22    14    15   am
    23    14    37    1
    24    15    16    2
    25    15    17    1
    26    17    18    1
    27    17    19    1
    28    17    25    1
    29    19    24   ar
    30    19    20   ar
    31    20    21   ar
    32    20    38    1
    33    21    22   ar
    34    21    39    1
    35    22    23   ar
    36    22    40    1
    37    23    24   ar
    38    23    41    1
    39    24    42    1
    40    25    30    1
    41    25    26    1
    42    26    27    1
    43    26    43    1
    44    26    44    1
    45    27    28    1
    46    27    45    1
    47    27    46    1
    48    28    29    1
    49    29    30    1
    50    29    47    1
    51    29    48    1
    52    30    49    1
    53    30    50    1
@<TRIPOS>SUBSTRUCTURE
     1 ZINC000521663393        1 TEMP              0 ****  ****    0 ROOT


##########                                Name:    ZINC000623581528
##########                DOCK_Rotatable_Bonds:                   5
##########                         Heavy_Atoms:                  26
##########                    Molecular_Weight:             355.369
##########                DOCK_Rotatable_Bonds:                   5
##########                       Formal_Charge:        -4.47035e-07
##########                     HBond_Acceptors:                   7
##########                        HBond_Donors:                   2
##########                         Heavy_Atoms:                  26
##########                          Grid_Score:          -28.428247
##########                     Grid_vdw_energy:          -27.889145
##########                      Grid_es_energy:           -0.539102
##########           Internal_energy_repulsive:            9.444657

@<TRIPOS>MOLECULE
ZINC000623581528
 44 47 1 0 0
SMALL
USER_CHARGES


@<TRIPOS>ATOM
      1 C1          2.5093    0.1321   45.1718 C.3     1  ZINC000623581528    0.1000
      2 N2          1.0926    0.4495   44.9747 N.am    1  ZINC000623581528   -0.5500
      3 C3          0.4063    0.3475   43.8193 C.2     1  ZINC000623581528    0.6300
      4 O4          0.8683   -0.0274   42.7589 O.2     1  ZINC000623581528   -0.4800
      5 O5         -0.8663    0.7240   44.0205 O.3     1  ZINC000623581528   -0.2300
      6 C6         -1.0259    1.0784   45.3191 C.ar    1  ZINC000623581528    0.0400
      7 C7         -2.1130    1.5342   46.0476 C.ar    1  ZINC000623581528   -0.0800
      8 C8         -1.9703    1.8217   47.3915 C.ar    1  ZINC000623581528   -0.0900
      9 C9         -0.7459    1.6571   48.0146 C.ar    1  ZINC000623581528   -0.0900
     10 C10        -0.6004    1.9734   49.4809 C.3     1  ZINC000623581528    0.1800
     11 N11        -1.7162    1.3797   50.2216 N.am    1  ZINC000623581528   -0.7400
     12 C12        -2.8171    2.1120   50.4829 C.2     1  ZINC000623581528    0.7100
     13 O13        -2.8836    3.2658   50.1053 O.2     1  ZINC000623581528   -0.5800
     14 N14        -3.8442    1.5652   51.1629 N.am    1  ZINC000623581528   -0.7300
     15 C15        -5.0417    2.3607   51.4455 C.3     1  ZINC000623581528    0.2000
     16 H16        -5.4360    2.7898   50.5245 H       1  ZINC000623581528    0.1000
     17 C17        -4.7157    3.4774   52.4599 C.3     1  ZINC000623581528   -0.1300
     18 C18        -5.0585    2.8102   53.8088 C.3     1  ZINC000623581528   -0.0800
     19 C19        -6.1022    1.7645   53.4797 C.ar    1  ZINC000623581528   -0.1000
     20 C20        -6.9895    1.0927   54.3036 C.ar    1  ZINC000623581528   -0.0800
     21 C21        -7.8654    0.1656   53.7737 C.ar    1  ZINC000623581528   -0.1400
     22 C22        -7.8566   -0.0938   52.4139 C.ar    1  ZINC000623581528    0.0900
     23 F23        -8.7125   -0.9996   51.8922 F       1  ZINC000623581528   -0.1400
     24 C24        -6.9700    0.5767   51.5899 C.ar    1  ZINC000623581528   -0.1200
     25 C25        -6.0934    1.5055   52.1190 C.ar    1  ZINC000623581528   -0.0900
     26 C26         0.3437    1.2032   47.2963 C.ar    1  ZINC000623581528   -0.0800
     27 C27         0.2066    0.9066   45.9497 C.ar    1  ZINC000623581528    0.0700
     28 H28         2.6114   -0.9170   45.4491 H       1  ZINC000623581528    0.0800
     29 H29         3.0554    0.3183   44.2470 H       1  ZINC000623581528    0.0900
     30 H30         2.9150    0.7590   45.9658 H       1  ZINC000623581528    0.0900
     31 H31        -3.0705    1.6649   45.5655 H       1  ZINC000623581528    0.1500
     32 H32        -2.8183    2.1769   47.9581 H       1  ZINC000623581528    0.1500
     33 H33         0.3397    1.5632   49.8495 H       1  ZINC000623581528    0.0800
     34 H34        -0.6052    3.0544   49.6215 H       1  ZINC000623581528    0.0800
     35 H35        -1.6627    0.4595   50.5238 H       1  ZINC000623581528    0.4000
     36 H36        -3.7908    0.6451   51.4653 H       1  ZINC000623581528    0.4000
     37 H37        -3.6596    3.7438   52.4167 H       1  ZINC000623581528    0.0900
     38 H38        -5.3441    4.3514   52.2892 H       1  ZINC000623581528    0.0900
     39 H39        -4.1721    2.3393   54.2339 H       1  ZINC000623581528    0.0800
     40 H40        -5.4659    3.5462   54.5020 H       1  ZINC000623581528    0.0800
     41 H41        -6.9969    1.2946   55.3645 H       1  ZINC000623581528    0.1300
     42 H42        -8.5561   -0.3564   54.4193 H       1  ZINC000623581528    0.1400
     43 H43        -6.9628    0.3746   50.5290 H       1  ZINC000623581528    0.1400
     44 H44         1.2987    1.0753   47.7844 H       1  ZINC000623581528    0.1400
@<TRIPOS>BOND
     1     1     2    1
     2     1    28    1
     3     1    29    1
     4     1    30    1
     5     2    27    1
     6     2     3   am
     7     3     4    2
     8     3     5    1
     9     5     6    1
    10     6    27   ar
    11     6     7   ar
    12     7     8   ar
    13     7    31    1
    14     8     9   ar
    15     8    32    1
    16     9    10    1
    17     9    26   ar
    18    10    11    1
    19    10    33    1
    20    10    34    1
    21    11    12   am
    22    11    35    1
    23    12    13    2
    24    12    14   am
    25    14    15    1
    26    14    36    1
    27    15    16    1
    28    15    25    1
    29    15    17    1
    30    17    18    1
    31    17    37    1
    32    17    38    1
    33    18    19    1
    34    18    39    1
    35    18    40    1
    36    19    25   ar
    37    19    20   ar
    38    20    21   ar
    39    20    41    1
    40    21    22   ar
    41    21    42    1
    42    22    23    1
    43    22    24   ar
    44    24    25   ar
    45    24    43    1
    46    26    27   ar
    47    26    44    1
@<TRIPOS>SUBSTRUCTURE
     1 ZINC000623581528        1 TEMP              0 ****  ****    0 ROOT


##########                                Name:    ZINC000530457945
##########                DOCK_Rotatable_Bonds:                   4
##########                         Heavy_Atoms:                  25
##########                    Molecular_Weight:             355.827
##########                DOCK_Rotatable_Bonds:                   4
##########                       Formal_Charge:           0.0199997
##########                     HBond_Acceptors:                   7
##########                        HBond_Donors:                   1
##########                         Heavy_Atoms:                  25
##########                          Grid_Score:          -28.418943
##########                     Grid_vdw_energy:          -29.159313
##########                      Grid_es_energy:            0.740369
##########           Internal_energy_repulsive:           28.898609

@<TRIPOS>MOLECULE
ZINC000530457945
 43 46 1 0 0
SMALL
USER_CHARGES


@<TRIPOS>ATOM
      1 C1         -1.9676    1.7341   46.5805 C.3     1  ZINC000530457945   -0.1700
      2 C2         -1.2024    1.2789   47.8247 C.3     1  ZINC000530457945    0.0900
      3 H3         -1.4922    0.2612   48.0864 H       1  ZINC000530457945    0.1100
      4 C4         -1.5026    2.2296   49.0027 C.3     1  ZINC000530457945   -0.1200
      5 H5         -1.8292    3.2035   48.6383 H       1  ZINC000530457945    0.1100
      6 C6         -2.5381    1.6312   49.9196 C.2     1  ZINC000530457945    0.5300
      7 O7         -2.3392    0.5526   50.4371 O.2     1  ZINC000530457945   -0.4700
      8 N8         -3.6854    2.2949   50.1645 N.am    1  ZINC000530457945   -0.6200
      9 C9         -4.6458    1.7397   51.0129 C.2     1  ZINC000530457945    0.4800
     10 N10        -4.9018    2.1446   52.2404 N.2     1  ZINC000530457945   -0.3000
     11 N11        -5.9265    1.3272   52.7383 N.pl3   1  ZINC000530457945   -0.2800
     12 C12        -6.5839    1.2834   53.9270 C.2     1  ZINC000530457945    0.1400
     13 C13        -7.5556    0.3666   54.1427 C.2     1  ZINC000530457945   -0.0800
     14 Cl14       -8.3843    0.3259   55.6675 Cl      1  ZINC000530457945   -0.0200
     15 C15        -7.8953   -0.5510   53.1369 C.2     1  ZINC000530457945   -0.0500
     16 C16        -7.2412   -0.5131   51.9427 C.2     1  ZINC000530457945   -0.0900
     17 C17        -6.2345    0.4476   51.7398 C.2     1  ZINC000530457945    0.3000
     18 N18        -5.4470    0.7247   50.7051 N.2     1  ZINC000530457945   -0.5500
     19 C19        -0.1309    2.3434   49.7183 C.3     1  ZINC000530457945   -0.1200
     20 C20         0.8511    2.3018   48.5210 C.3     1  ZINC000530457945    0.0400
     21 N21         0.2487    1.3376   47.5706 N.3     1  ZINC000530457945   -0.4900
     22 C22         0.5108    1.7070   46.2493 C.ar    1  ZINC000530457945    0.1000
     23 C23         0.3997    3.0367   45.8631 C.ar    1  ZINC000530457945   -0.1600
     24 C24         0.6601    3.3986   44.5560 C.ar    1  ZINC000530457945   -0.1100
     25 C25         1.0305    2.4388   43.6319 C.ar    1  ZINC000530457945   -0.1300
     26 C26         1.1421    1.1143   44.0129 C.ar    1  ZINC000530457945   -0.1100
     27 C27         0.8888    0.7464   45.3198 C.ar    1  ZINC000530457945   -0.1000
     28 H28        -1.6567    1.1362   45.7238 H       1  ZINC000530457945    0.0700
     29 H29        -3.0375    1.6051   46.7444 H       1  ZINC000530457945    0.0600
     30 H30        -1.7538    2.7852   46.3868 H       1  ZINC000530457945    0.0600
     31 H31        -3.8440    3.1582   49.7515 H       1  ZINC000530457945    0.4300
     32 H32        -6.3284    1.9862   54.7062 H       1  ZINC000530457945    0.1800
     33 H33        -8.6705   -1.2831   53.3088 H       1  ZINC000530457945    0.1600
     34 H34        -7.4926   -1.2137   51.1602 H       1  ZINC000530457945    0.1700
     35 H35        -0.0490    3.2869   50.2578 H       1  ZINC000530457945    0.0900
     36 H36         0.0322    1.4978   50.3866 H       1  ZINC000530457945    0.0900
     37 H37         0.9328    3.2875   48.0628 H       1  ZINC000530457945    0.0700
     38 H38         1.8306    1.9509   48.8455 H       1  ZINC000530457945    0.0900
     39 H39         0.1098    3.7867   46.5841 H       1  ZINC000530457945    0.1200
     40 H40         0.5739    4.4323   44.2551 H       1  ZINC000530457945    0.1200
     41 H41         1.2329    2.7244   42.6101 H       1  ZINC000530457945    0.1200
     42 H42         1.4316    0.3672   43.2888 H       1  ZINC000530457945    0.1300
     43 H43         0.9763   -0.2883   45.6168 H       1  ZINC000530457945    0.1300
@<TRIPOS>BOND
     1     1     2    1
     2     1    28    1
     3     1    29    1
     4     1    30    1
     5     2     3    1
     6     2    21    1
     7     2     4    1
     8     4     5    1
     9     4     6    1
    10     4    19    1
    11     6     7    2
    12     6     8   am
    13     8     9    1
    14     8    31    1
    15     9    18    1
    16     9    10    2
    17    10    11    1
    18    11    17    1
    19    11    12    1
    20    12    13    2
    21    12    32    1
    22    13    14    1
    23    13    15    1
    24    15    16    2
    25    15    33    1
    26    16    17    1
    27    16    34    1
    28    17    18    2
    29    19    20    1
    30    19    35    1
    31    19    36    1
    32    20    21    1
    33    20    37    1
    34    20    38    1
    35    21    22    1
    36    22    27   ar
    37    22    23   ar
    38    23    24   ar
    39    23    39    1
    40    24    25   ar
    41    24    40    1
    42    25    26   ar
    43    25    41    1
    44    26    27   ar
    45    26    42    1
    46    27    43    1
@<TRIPOS>SUBSTRUCTURE
     1 ZINC000530457945        1 TEMP              0 ****  ****    0 ROOT


##########                                Name:    ZINC000840649129
##########                DOCK_Rotatable_Bonds:                   8
##########                         Heavy_Atoms:                  26
##########                    Molecular_Weight:             376.839
##########                DOCK_Rotatable_Bonds:                   8
##########                       Formal_Charge:          -0.0199998
##########                     HBond_Acceptors:                   7
##########                        HBond_Donors:                   3
##########                         Heavy_Atoms:                  26
##########                          Grid_Score:          -28.401247
##########                     Grid_vdw_energy:          -28.002531
##########                      Grid_es_energy:           -0.398715
##########           Internal_energy_repulsive:           15.806720

@<TRIPOS>MOLECULE
ZINC000840649129
 47 48 1 0 0
SMALL
USER_CHARGES


@<TRIPOS>ATOM
      1 C1        -10.2118   -1.9471   56.3202 C.3     1  ZINC000840649129    0.0200
      2 O2        -10.2500   -2.9704   57.3169 O.3     1  ZINC000840649129   -0.2900
      3 C3        -11.4444   -3.1989   57.9200 C.ar    1  ZINC000840649129    0.1400
      4 C4        -12.4361   -3.9022   57.2535 C.ar    1  ZINC000840649129   -0.1700
      5 C5        -13.6514   -4.1356   57.8650 C.ar    1  ZINC000840649129   -0.1200
      6 C6        -13.8910   -3.6684   59.1531 C.ar    1  ZINC000840649129    0.1700
      7 N7        -15.1263   -3.9101   59.7649 N.pl3   1  ZINC000840649129   -0.8800
      8 C8        -12.9102   -2.9656   59.8314 C.ar    1  ZINC000840649129   -0.1000
      9 C9        -11.6761   -2.7294   59.2203 C.ar    1  ZINC000840649129   -0.1200
     10 C10       -10.6261   -1.9822   59.9360 C.2     1  ZINC000840649129    0.5100
     11 O11        -9.9292   -2.5477   60.7553 O.2     1  ZINC000840649129   -0.4800
     12 O12       -10.4391   -0.6722   59.6817 O.3     1  ZINC000840649129   -0.3200
     13 C13        -9.4225    0.0120   60.4607 C.3     1  ZINC000840649129    0.0800
     14 H14        -8.4947   -0.5593   60.4291 H       1  ZINC000840649129    0.1200
     15 C15        -9.8855    0.1394   61.8892 C.2     1  ZINC000840649129    0.5200
     16 O16       -10.8878   -0.4369   62.2555 O.2     1  ZINC000840649129   -0.4900
     17 N17        -9.1856    0.8936   62.7596 N.am    1  ZINC000840649129   -0.6600
     18 C18        -9.6156    1.0121   64.0865 C.ar    1  ZINC000840649129    0.1600
     19 C19       -10.8588    1.5615   64.3683 C.ar    1  ZINC000840649129   -0.1400
     20 C20       -11.2807    1.6768   65.6789 C.ar    1  ZINC000840649129   -0.0900
     21 C21       -10.4665    1.2456   66.7097 C.ar    1  ZINC000840649129   -0.1300
     22 C22        -9.2269    0.6980   66.4332 C.ar    1  ZINC000840649129   -0.0900
     23 C23        -8.8012    0.5746   65.1244 C.ar    1  ZINC000840649129   -0.0700
     24 Cl24       -7.2454   -0.1134   64.7776 Cl      1  ZINC000840649129   -0.0700
     25 C25        -9.1836    1.4055   59.8759 C.3     1  ZINC000840649129   -0.1100
     26 C26        -8.2082    1.3052   58.7014 C.3     1  ZINC000840649129   -0.1600
     27 C27       -10.5115    1.9880   59.3876 C.3     1  ZINC000840649129   -0.1500
     28 H28        -9.2011   -1.8677   55.9195 H       1  ZINC000840649129    0.1000
     29 H29       -10.9030   -2.1976   55.5156 H       1  ZINC000840649129    0.0600
     30 H30       -10.5019   -0.9953   56.7654 H       1  ZINC000840649129    0.0600
     31 H31       -12.2573   -4.2679   56.2532 H       1  ZINC000840649129    0.1400
     32 H32       -14.4204   -4.6834   57.3405 H       1  ZINC000840649129    0.1300
     33 H33       -15.8144   -4.4028   59.2907 H       1  ZINC000840649129    0.4000
     34 H34       -15.2946   -3.5848   60.6631 H       1  ZINC000840649129    0.4000
     35 H35       -13.0972   -2.6037   60.8317 H       1  ZINC000840649129    0.1400
     36 H36        -8.3839    1.3544   62.4667 H       1  ZINC000840649129    0.4200
     37 H37       -11.4955    1.8990   63.5640 H       1  ZINC000840649129    0.1700
     38 H38       -12.2478    2.1045   65.8985 H       1  ZINC000840649129    0.1300
     39 H39       -10.7990    1.3370   67.7331 H       1  ZINC000840649129    0.1300
     40 H40        -8.5931    0.3625   67.2406 H       1  ZINC000840649129    0.1400
     41 H41        -8.7625    2.0545   60.6436 H       1  ZINC000840649129    0.0900
     42 H42        -8.5686    0.5599   57.9923 H       1  ZINC000840649129    0.0700
     43 H43        -8.1358    2.2732   58.2056 H       1  ZINC000840649129    0.0800
     44 H44        -7.2254    1.0111   59.0695 H       1  ZINC000840649129    0.0600
     45 H45       -11.2065    2.0594   60.2243 H       1  ZINC000840649129    0.0500
     46 H46       -10.3414    2.9807   58.9709 H       1  ZINC000840649129    0.0600
     47 H47       -10.9328    1.3390   58.6199 H       1  ZINC000840649129    0.0700
@<TRIPOS>BOND
     1     1     2    1
     2     1    28    1
     3     1    29    1
     4     1    30    1
     5     2     3    1
     6     3     9   ar
     7     3     4   ar
     8     4     5   ar
     9     4    31    1
    10     5     6   ar
    11     5    32    1
    12     6     7    1
    13     6     8   ar
    14     7    33    1
    15     7    34    1
    16     8     9   ar
    17     8    35    1
    18     9    10    1
    19    10    11    2
    20    10    12    1
    21    12    13    1
    22    13    14    1
    23    13    15    1
    24    13    25    1
    25    15    16    2
    26    15    17   am
    27    17    18    1
    28    17    36    1
    29    18    23   ar
    30    18    19   ar
    31    19    20   ar
    32    19    37    1
    33    20    21   ar
    34    20    38    1
    35    21    22   ar
    36    21    39    1
    37    22    23   ar
    38    22    40    1
    39    23    24    1
    40    25    26    1
    41    25    27    1
    42    25    41    1
    43    26    42    1
    44    26    43    1
    45    26    44    1
    46    27    45    1
    47    27    46    1
    48    27    47    1
@<TRIPOS>SUBSTRUCTURE
     1 ZINC000840649129        1 TEMP              0 ****  ****    0 ROOT


##########                                Name:    ZINC000119180466
##########                DOCK_Rotatable_Bonds:                  10
##########                         Heavy_Atoms:                  23
##########                    Molecular_Weight:             350.405
##########                DOCK_Rotatable_Bonds:                  10
##########                       Formal_Charge:           0.0299997
##########                     HBond_Acceptors:                   8
##########                        HBond_Donors:                   3
##########                         Heavy_Atoms:                  23
##########                          Grid_Score:          -28.383047
##########                     Grid_vdw_energy:          -26.926722
##########                      Grid_es_energy:           -1.456326
##########           Internal_energy_repulsive:           10.012884

@<TRIPOS>MOLECULE
ZINC000119180466
 44 44 1 0 0
SMALL
USER_CHARGES


@<TRIPOS>ATOM
      1 C1         -8.4698    2.1533   60.4270 C.3     1  ZINC000119180466   -0.1300
      2 S2         -8.2256    0.9696   59.0743 S.3     1  ZINC000119180466   -0.2200
      3 C3         -9.4412   -0.3259   59.4413 C.3     1  ZINC000119180466   -0.0700
      4 H4        -10.3578    0.1310   59.8141 H       1  ZINC000119180466    0.1100
      5 C5         -8.8744   -1.2712   60.5025 C.3     1  ZINC000119180466    0.0800
      6 O6         -7.6073   -1.7695   60.0685 O.3     1  ZINC000119180466   -0.5600
      7 C7         -9.7465   -1.1147   58.1664 C.3     1  ZINC000119180466    0.1900
      8 H8         -9.0798   -1.9747   58.1028 H       1  ZINC000119180466    0.1000
      9 C9        -11.1983   -1.5964   58.2001 C.3     1  ZINC000119180466   -0.1700
     10 N10        -9.5448   -0.2530   56.9990 N.am    1  ZINC000119180466   -0.7200
     11 C11        -9.4095   -0.7986   55.7740 C.2     1  ZINC000119180466    0.7100
     12 O12        -9.4564   -2.0059   55.6376 O.2     1  ZINC000119180466   -0.6000
     13 N13        -9.2224   -0.0059   54.7002 N.am    1  ZINC000119180466   -0.7400
     14 C14        -9.0771   -0.5988   53.3684 C.3     1  ZINC000119180466    0.2000
     15 H15        -8.6488   -1.5969   53.4598 H       1  ZINC000119180466    0.1000
     16 C16       -10.4499   -0.6921   52.6993 C.3     1  ZINC000119180466   -0.1600
     17 C17        -8.1677    0.2633   52.5313 C.ar    1  ZINC000119180466   -0.0600
     18 C18        -7.2895   -0.3218   51.6383 C.ar    1  ZINC000119180466   -0.1100
     19 C19        -6.4553    0.4691   50.8705 C.ar    1  ZINC000119180466   -0.0600
     20 C20        -6.4997    1.8451   50.9953 C.ar    1  ZINC000119180466   -0.1800
     21 C21        -5.5899    2.7072   50.1586 C.3     1  ZINC000119180466    0.5100
     22 F22        -4.3898    2.0277   49.9235 F       1  ZINC000119180466   -0.1800
     23 F23        -6.2107    2.9931   48.9380 F       1  ZINC000119180466   -0.1800
     24 F24        -5.3244    3.9012   50.8377 F       1  ZINC000119180466   -0.1800
     25 C25        -7.3788    2.4303   51.8872 C.ar    1  ZINC000119180466   -0.0600
     26 C26        -8.2157    1.6396   52.6523 C.ar    1  ZINC000119180466   -0.1100
     27 H27        -8.2810    1.6596   61.3803 H       1  ZINC000119180466    0.0800
     28 H28        -7.7800    2.9888   60.3077 H       1  ZINC000119180466    0.1000
     29 H29        -9.4951    2.5227   60.4060 H       1  ZINC000119180466    0.0800
     30 H30        -8.7503   -0.7311   61.4411 H       1  ZINC000119180466    0.0500
     31 H31        -9.5611   -2.1045   60.6509 H       1  ZINC000119180466    0.0600
     32 H32        -7.1721   -2.3486   60.7092 H       1  ZINC000119180466    0.3800
     33 H33       -11.8651   -0.7364   58.2637 H       1  ZINC000119180466    0.0700
     34 H34       -11.4158   -2.1583   57.2917 H       1  ZINC000119180466    0.0700
     35 H35       -11.3484   -2.2375   59.0687 H       1  ZINC000119180466    0.0700
     36 H36        -9.5087    0.7102   57.1076 H       1  ZINC000119180466    0.4100
     37 H37        -9.1838    0.9572   54.8091 H       1  ZINC000119180466    0.4000
     38 H38       -10.3418   -1.1333   51.7084 H       1  ZINC000119180466    0.0700
     39 H39       -11.1076   -1.3157   53.3049 H       1  ZINC000119180466    0.0700
     40 H40       -10.8781    0.3060   52.6079 H       1  ZINC000119180466    0.0600
     41 H41        -7.2549   -1.3968   51.5409 H       1  ZINC000119180466    0.1300
     42 H42        -5.7688    0.0119   50.1734 H       1  ZINC000119180466    0.1400
     43 H43        -7.4136    3.5053   51.9845 H       1  ZINC000119180466    0.1400
     44 H44        -8.9025    2.0967   53.3493 H       1  ZINC000119180466    0.1400
@<TRIPOS>BOND
     1     1     2    1
     2     1    27    1
     3     1    28    1
     4     1    29    1
     5     2     3    1
     6     3     4    1
     7     3     5    1
     8     3     7    1
     9     5     6    1
    10     5    30    1
    11     5    31    1
    12     6    32    1
    13     7     8    1
    14     7     9    1
    15     7    10    1
    16     9    33    1
    17     9    34    1
    18     9    35    1
    19    10    11   am
    20    10    36    1
    21    11    12    2
    22    11    13   am
    23    13    14    1
    24    13    37    1
    25    14    15    1
    26    14    16    1
    27    14    17    1
    28    16    38    1
    29    16    39    1
    30    16    40    1
    31    17    26   ar
    32    17    18   ar
    33    18    19   ar
    34    18    41    1
    35    19    20   ar
    36    19    42    1
    37    20    21    1
    38    20    25   ar
    39    21    22    1
    40    21    23    1
    41    21    24    1
    42    25    26   ar
    43    25    43    1
    44    26    44    1
@<TRIPOS>SUBSTRUCTURE
     1 ZINC000119180466        1 TEMP              0 ****  ****    0 ROOT


##########                                Name:    ZINC000291036115
##########                DOCK_Rotatable_Bonds:                   5
##########                         Heavy_Atoms:                  22
##########                    Molecular_Weight:             366.193
##########                DOCK_Rotatable_Bonds:                   5
##########                       Formal_Charge:                0.01
##########                     HBond_Acceptors:                   7
##########                        HBond_Donors:                   0
##########                         Heavy_Atoms:                  22
##########                          Grid_Score:          -28.356815
##########                     Grid_vdw_energy:          -26.840065
##########                      Grid_es_energy:           -1.516751
##########           Internal_energy_repulsive:            6.001155

@<TRIPOS>MOLECULE
ZINC000291036115
 35 37 1 0 0
SMALL
USER_CHARGES


@<TRIPOS>ATOM
      1 C1         -1.5187    0.7918   49.6879 C.3     1  <0>        -0.1500
      2 C2         -1.7864    2.1131   48.9643 C.3     1  <0>        -0.0400
      3 H3         -1.4212    2.9408   49.5724 H       1  <0>         0.0900
      4 C4         -3.2906    2.2734   48.7351 C.3     1  <0>        -0.0200
      5 C5         -3.9278    2.8547   49.9709 C.2     1  <0>         0.1900
      6 N6         -4.4403    2.1840   50.9745 N.2     1  <0>        -0.4500
      7 C7         -4.8884    3.1120   51.8388 C.2     1  <0>         0.1500
      8 C8         -5.5649    2.8480   53.1594 C.3     1  <0>         0.2300
      9 N9         -6.4427    1.6819   53.0339 N.pl3   1  <0>        -0.3900
     10 C10        -6.7298    0.7828   53.9912 C.2     1  <0>         0.2600
     11 N11        -7.5492   -0.1023   53.4844 N.2     1  <0>        -0.5400
     12 C12        -7.8070    0.1970   52.2119 C.2     1  <0>         0.2000
     13 N13        -7.1563    1.2845   51.8914 N.2     1  <0>        -0.3100
     14 N14        -4.6303    4.2779   51.3265 N.2     1  <0>        -0.3600
     15 O15        -4.0734    4.1522   50.2561 O.3     1  <0>         0.0900
     16 C16        -1.0733    2.1122   47.6367 C.ar    1  <0>        -0.0900
     17 C17        -0.0292    2.9899   47.4132 C.ar    1  <0>        -0.0700
     18 C18         0.6263    2.9900   46.1962 C.ar    1  <0>        -0.1400
     19 C19         0.2370    2.1107   45.2007 C.ar    1  <0>         0.1300
     20 F20         0.8772    2.1098   44.0110 F       1  <0>        -0.1200
     21 C21        -0.8099    1.2311   45.4255 C.ar    1  <0>        -0.1300
     22 Br22       -1.3433    0.0284   44.0673 Br      1  <0>        -0.0200
     23 C23        -1.4603    1.2295   46.6455 C.ar    1  <0>        -0.0500
     24 H24        -2.0345    0.7925   50.6482 H       1  <0>         0.0600
     25 H25        -1.8838   -0.0358   49.0799 H       1  <0>         0.0700
     26 H26        -0.4471    0.6776   49.8512 H       1  <0>         0.0700
     27 H27        -3.4603    2.9411   47.8905 H       1  <0>         0.1200
     28 H28        -3.7316    1.2995   48.5228 H       1  <0>         0.1100
     29 H29        -4.8104    2.6545   53.9218 H       1  <0>         0.1300
     30 H30        -6.1556    3.7183   53.4453 H       1  <0>         0.1200
     31 H31        -6.3497    0.7896   55.0022 H       1  <0>         0.2200
     32 H32        -8.4522   -0.3653   51.5533 H       1  <0>         0.2200
     33 H33         0.2745    3.6763   48.1897 H       1  <0>         0.1400
     34 H34         1.4418    3.6762   46.0219 H       1  <0>         0.1500
     35 H35        -2.2763    0.5442   46.8213 H       1  <0>         0.1400
@<TRIPOS>BOND
     1     1     2    1
     2     1    24    1
     3     1    25    1
     4     1    26    1
     5     2     3    1
     6     2     4    1
     7     2    16    1
     8     4     5    1
     9     4    27    1
    10     4    28    1
    11     5    15    1
    12     5     6    2
    13     6     7    1
    14     7     8    1
    15     7    14    2
    16     8     9    1
    17     8    29    1
    18     8    30    1
    19     9    13    1
    20     9    10    1
    21    10    11    2
    22    10    31    1
    23    11    12    1
    24    12    13    2
    25    12    32    1
    26    14    15    1
    27    16    23   ar
    28    16    17   ar
    29    17    18   ar
    30    17    33    1
    31    18    19   ar
    32    18    34    1
    33    19    20    1
    34    19    21   ar
    35    21    22    1
    36    21    23   ar
    37    23    35    1
@<TRIPOS>SUBSTRUCTURE
     1 <0>         1 TEMP              0 ****  ****    0 ROOT


##########                                Name:    ZINC000648570180
##########                DOCK_Rotatable_Bonds:                   4
##########                         Heavy_Atoms:                  25
##########                    Molecular_Weight:             342.484
##########                DOCK_Rotatable_Bonds:                   4
##########                       Formal_Charge:          0.00999971
##########                     HBond_Acceptors:                   5
##########                        HBond_Donors:                   0
##########                         Heavy_Atoms:                  25
##########                          Grid_Score:          -28.339581
##########                     Grid_vdw_energy:          -27.848322
##########                      Grid_es_energy:           -0.491259
##########           Internal_energy_repulsive:           87.142273

@<TRIPOS>MOLECULE
ZINC000648570180
 55 58 1 0 0
SMALL
USER_CHARGES


@<TRIPOS>ATOM
      1 C1         -6.9161    0.4137   53.4714 C.3     1  ZINC000648570180   -0.1500
      2 C2         -8.1968    1.1769   53.1273 C.3     1  ZINC000648570180   -0.0600
      3 C3         -9.2069    0.2349   52.4690 C.3     1  ZINC000648570180   -0.1400
      4 C4         -8.8030    1.7948   54.4042 C.3     1  ZINC000648570180   -0.1200
      5 C5         -9.3626    3.1611   53.9361 C.3     1  ZINC000648570180   -0.1300
      6 C6         -8.2964    3.6366   52.9181 C.3     1  ZINC000648570180   -0.1200
      7 C7         -7.8746    2.3479   52.1825 C.3     1  ZINC000648570180   -0.0700
      8 H8         -8.4386    2.2455   51.2553 H       1  ZINC000648570180    0.0800
      9 C9         -6.3749    2.3829   51.8818 C.3     1  ZINC000648570180   -0.1000
     10 H10        -5.7935    2.1764   52.7805 H       1  ZINC000648570180    0.1000
     11 C11        -6.0122    1.3914   50.7449 C.3     1  ZINC000648570180   -0.1400
     12 C12        -4.7400    2.0161   50.1342 C.3     1  ZINC000648570180    0.1200
     13 N13        -4.7447    3.4445   50.4826 N.am    1  ZINC000648570180   -0.6000
     14 C14        -3.7912    4.3371   50.1505 C.2     1  ZINC000648570180    0.5800
     15 O15        -3.8988    5.4972   50.4945 O.2     1  ZINC000648570180   -0.5200
     16 C16        -2.6091    3.9027   49.3642 C.ar    1  ZINC000648570180    0.1600
     17 C17        -1.3643    4.4966   49.5707 C.ar    1  ZINC000648570180   -0.2000
     18 C18        -0.2882    4.0567   48.8119 C.ar    1  ZINC000648570180    0.1800
     19 N19        -0.4743    3.0963   47.9242 N.ar    1  ZINC000648570180   -0.5400
     20 C20        -1.6700    2.5505   47.7503 C.ar    1  ZINC000648570180    0.4800
     21 N21        -1.8223    1.5466   46.8094 N.3     1  ZINC000648570180   -0.4400
     22 C22        -0.8940    1.7426   45.6666 C.3     1  ZINC000648570180    0.0500
     23 C23        -0.8161    0.3333   45.0274 C.3     1  ZINC000648570180   -0.1200
     24 C24        -0.8435   -0.6052   46.2556 C.3     1  ZINC000648570180   -0.1300
     25 C25        -1.4824    0.2265   47.3832 C.3     1  ZINC000648570180    0.0400
     26 N26        -2.7201    2.9367   48.4557 N.ar    1  ZINC000648570180   -0.5000
     27 C27        -5.9656    3.7392   51.2554 C.3     1  ZINC000648570180    0.1100
     28 H28        -6.1639    1.1124   53.8375 H       1  ZINC000648570180    0.0600
     29 H29        -7.1304   -0.3264   54.2426 H       1  ZINC000648570180    0.0500
     30 H30        -6.5418   -0.0888   52.5795 H       1  ZINC000648570180    0.0700
     31 H31        -9.4376   -0.5840   53.1505 H       1  ZINC000648570180    0.0500
     32 H32       -10.1197    0.7845   52.2391 H       1  ZINC000648570180    0.0500
     33 H33        -8.7830   -0.1667   51.5487 H       1  ZINC000648570180    0.0500
     34 H34        -9.6055    1.1653   54.7886 H       1  ZINC000648570180    0.0600
     35 H35        -8.0325    1.9374   55.1618 H       1  ZINC000648570180    0.0700
     36 H36       -10.3310    3.0364   53.4515 H       1  ZINC000648570180    0.0700
     37 H37        -9.4347    3.8561   54.7728 H       1  ZINC000648570180    0.0700
     38 H38        -8.7293    4.3511   52.2180 H       1  ZINC000648570180    0.0700
     39 H39        -7.4442    4.0766   53.4358 H       1  ZINC000648570180    0.0700
     40 H40        -5.7999    0.4017   51.1493 H       1  ZINC000648570180    0.0900
     41 H41        -6.8116    1.3437   50.0053 H       1  ZINC000648570180    0.0800
     42 H42        -3.8546    1.5359   50.5507 H       1  ZINC000648570180    0.0800
     43 H43        -4.7529    1.8989   49.0507 H       1  ZINC000648570180    0.0700
     44 H44        -1.2405    5.2805   50.3033 H       1  ZINC000648570180    0.1600
     45 H45         0.6898    4.4949   48.9457 H       1  ZINC000648570180    0.1800
     46 H46        -1.3023    2.4640   44.9588 H       1  ZINC000648570180    0.1000
     47 H47         0.0874    2.0604   46.0184 H       1  ZINC000648570180    0.0500
     48 H48        -1.6778    0.1531   44.3848 H       1  ZINC000648570180    0.0800
     49 H49         0.1134    0.2132   44.4709 H       1  ZINC000648570180    0.0800
     50 H50        -1.4500   -1.4861   46.0451 H       1  ZINC000648570180    0.0800
     51 H51         0.1696   -0.8992   46.5298 H       1  ZINC000648570180    0.0700
     52 H52        -0.7732    0.3489   48.2018 H       1  ZINC000648570180    0.0900
     53 H53        -2.3860   -0.2663   47.7418 H       1  ZINC000648570180    0.0900
     54 H54        -6.7529    4.1046   50.5960 H       1  ZINC000648570180    0.0700
     55 H55        -5.7536    4.4701   52.0356 H       1  ZINC000648570180    0.0800
@<TRIPOS>BOND
     1     1     2    1
     2     1    28    1
     3     1    29    1
     4     1    30    1
     5     2     7    1
     6     2     3    1
     7     2     4    1
     8     3    31    1
     9     3    32    1
    10     3    33    1
    11     4     5    1
    12     4    34    1
    13     4    35    1
    14     5     6    1
    15     5    36    1
    16     5    37    1
    17     6     7    1
    18     6    38    1
    19     6    39    1
    20     7     8    1
    21     7     9    1
    22     9    10    1
    23     9    27    1
    24     9    11    1
    25    11    12    1
    26    11    40    1
    27    11    41    1
    28    12    13    1
    29    12    42    1
    30    12    43    1
    31    13    14   am
    32    13    27    1
    33    14    15    2
    34    14    16    1
    35    16    26   ar
    36    16    17   ar
    37    17    18   ar
    38    17    44    1
    39    18    19   ar
    40    18    45    1
    41    19    20   ar
    42    20    21    1
    43    20    26   ar
    44    21    25    1
    45    21    22    1
    46    22    23    1
    47    22    46    1
    48    22    47    1
    49    23    24    1
    50    23    48    1
    51    23    49    1
    52    24    25    1
    53    24    50    1
    54    24    51    1
    55    25    52    1
    56    25    53    1
    57    27    54    1
    58    27    55    1
@<TRIPOS>SUBSTRUCTURE
     1 ZINC000648570180        1 TEMP              0 ****  ****    0 ROOT


##########                                Name:    ZINC000464752079
##########                DOCK_Rotatable_Bonds:                   7
##########                         Heavy_Atoms:                  29
##########                    Molecular_Weight:             404.413
##########                DOCK_Rotatable_Bonds:                   7
##########                       Formal_Charge:         7.45058e-08
##########                     HBond_Acceptors:                   8
##########                        HBond_Donors:                   1
##########                         Heavy_Atoms:                  29
##########                          Grid_Score:          -28.329334
##########                     Grid_vdw_energy:          -28.705530
##########                      Grid_es_energy:            0.376195
##########           Internal_energy_repulsive:           17.374454

@<TRIPOS>MOLECULE
ZINC000464752079
 51 54 1 0 0
SMALL
USER_CHARGES


@<TRIPOS>ATOM
      1 C1         -6.8623    2.2533   55.5622 C.3     1  ZINC000464752079   -0.1200
      2 C2         -7.3058    3.0907   54.3904 C.ar    1  ZINC000464752079   -0.0800
      3 C3         -7.9595    4.2892   54.6057 C.ar    1  ZINC000464752079   -0.1200
      4 C4         -8.3664    5.0575   53.5306 C.ar    1  ZINC000464752079   -0.1200
      5 C5         -8.1192    4.6271   52.2407 C.ar    1  ZINC000464752079   -0.1300
      6 C6         -7.4645    3.4286   52.0254 C.ar    1  ZINC000464752079   -0.0900
      7 C7         -7.0539    2.6626   53.1001 C.ar    1  ZINC000464752079   -0.0800
      8 C8         -6.3403    1.3562   52.8655 C.3     1  ZINC000464752079    0.2000
      9 H9         -5.6399    1.1654   53.6785 H       1  ZINC000464752079    0.0900
     10 C10        -7.3660    0.2067   52.7756 C.3     1  ZINC000464752079   -0.1200
     11 C11        -6.7806   -0.6947   51.6565 C.3     1  ZINC000464752079   -0.1300
     12 C12        -6.1690    0.3574   50.6980 C.3     1  ZINC000464752079    0.1000
     13 N13        -5.6193    1.4033   51.5850 N.am    1  ZINC000464752079   -0.6300
     14 C14        -4.6259    2.2580   51.2700 C.2     1  ZINC000464752079    0.7200
     15 O15        -4.2517    3.0812   52.0828 O.2     1  ZINC000464752079   -0.5700
     16 N16        -4.0476    2.2003   50.0541 N.am    1  ZINC000464752079   -0.7400
     17 C17        -2.9667    3.1283   49.7123 C.3     1  ZINC000464752079    0.1900
     18 C18        -2.1591    2.5611   48.5733 C.ar    1  ZINC000464752079   -0.1200
     19 C19        -2.7924    2.1514   47.4151 C.ar    1  ZINC000464752079   -0.0500
     20 C20        -2.0530    1.6291   46.3665 C.ar    1  ZINC000464752079    0.0100
     21 C21        -0.6696    1.5174   46.4801 C.ar    1  ZINC000464752079    0.0800
     22 C22        -0.0369    1.9298   47.6414 C.ar    1  ZINC000464752079   -0.1800
     23 C23        -0.7807    2.4561   48.6865 C.ar    1  ZINC000464752079    0.1400
     24 O24        -0.1596    2.8611   49.8263 O.3     1  ZINC000464752079   -0.3100
     25 C25         0.3836    1.8410   50.6667 C.3     1  ZINC000464752079    0.4100
     26 F26        -0.5780    0.8461   50.8734 F       1  ZINC000464752079   -0.2000
     27 F27         1.5092    1.2814   50.0529 F       1  ZINC000464752079   -0.2000
     28 O28        -0.1790    0.9796   45.3254 O.3     1  ZINC000464752079   -0.3000
     29 C29        -1.3125    0.3853   44.6656 C.3     1  ZINC000464752079    0.2100
     30 O30        -2.4292    1.1608   45.1397 O.3     1  ZINC000464752079   -0.3000
     31 H31        -5.8543    2.5454   55.8568 H       1  ZINC000464752079    0.0700
     32 H32        -7.5443    2.4080   56.3983 H       1  ZINC000464752079    0.0700
     33 H33        -6.8674    1.2006   55.2792 H       1  ZINC000464752079    0.0700
     34 H34        -8.1527    4.6256   55.6136 H       1  ZINC000464752079    0.1200
     35 H35        -8.8778    5.9938   53.6988 H       1  ZINC000464752079    0.1200
     36 H36        -8.4377    5.2269   51.4008 H       1  ZINC000464752079    0.1200
     37 H37        -7.2716    3.0921   51.0174 H       1  ZINC000464752079    0.1100
     38 H38        -7.4204   -0.3364   53.7192 H       1  ZINC000464752079    0.0900
     39 H39        -8.3471    0.5867   52.4910 H       1  ZINC000464752079    0.0800
     40 H40        -6.0109   -1.3577   52.0514 H       1  ZINC000464752079    0.0800
     41 H41        -7.5677   -1.2635   51.1613 H       1  ZINC000464752079    0.0900
     42 H42        -5.3731   -0.0896   50.1022 H       1  ZINC000464752079    0.0700
     43 H43        -6.9403    0.7744   50.0504 H       1  ZINC000464752079    0.0700
     44 H44        -4.3470    1.5443   49.4052 H       1  ZINC000464752079    0.4000
     45 H45        -3.3915    4.0869   49.4145 H       1  ZINC000464752079    0.0800
     46 H46        -2.3219    3.2702   50.5796 H       1  ZINC000464752079    0.0800
     47 H47        -3.8654    2.2381   47.3276 H       1  ZINC000464752079    0.1500
     48 H48         1.0359    1.8441   47.7315 H       1  ZINC000464752079    0.1500
     49 H49         0.6700    2.2742   51.6251 H       1  ZINC000464752079    0.1900
     50 H50        -1.2160    0.4746   43.5836 H       1  ZINC000464752079    0.1400
     51 H51        -1.4206   -0.6595   44.9567 H       1  ZINC000464752079    0.0900
@<TRIPOS>BOND
     1     1     2    1
     2     1    31    1
     3     1    32    1
     4     1    33    1
     5     2     7   ar
     6     2     3   ar
     7     3     4   ar
     8     3    34    1
     9     4     5   ar
    10     4    35    1
    11     5     6   ar
    12     5    36    1
    13     6     7   ar
    14     6    37    1
    15     7     8    1
    16     8     9    1
    17     8    13    1
    18     8    10    1
    19    10    11    1
    20    10    38    1
    21    10    39    1
    22    11    12    1
    23    11    40    1
    24    11    41    1
    25    12    13    1
    26    12    42    1
    27    12    43    1
    28    13    14   am
    29    14    15    2
    30    14    16   am
    31    16    17    1
    32    16    44    1
    33    17    18    1
    34    17    45    1
    35    17    46    1
    36    18    23   ar
    37    18    19   ar
    38    19    20   ar
    39    19    47    1
    40    20    30    1
    41    20    21   ar
    42    21    22   ar
    43    21    28    1
    44    22    23   ar
    45    22    48    1
    46    23    24    1
    47    24    25    1
    48    25    26    1
    49    25    27    1
    50    25    49    1
    51    28    29    1
    52    29    30    1
    53    29    50    1
    54    29    51    1
@<TRIPOS>SUBSTRUCTURE
     1 ZINC000464752079        1 TEMP              0 ****  ****    0 ROOT


##########                                Name:    ZINC000330515179
##########                DOCK_Rotatable_Bonds:                   4
##########                         Heavy_Atoms:                  21
##########                    Molecular_Weight:             378.287
##########                DOCK_Rotatable_Bonds:                   4
##########                       Formal_Charge:           0.0200002
##########                     HBond_Acceptors:                   6
##########                        HBond_Donors:                   0
##########                         Heavy_Atoms:                  21
##########                          Grid_Score:          -28.327845
##########                     Grid_vdw_energy:          -27.544064
##########                      Grid_es_energy:           -0.783781
##########           Internal_energy_repulsive:            6.952727

@<TRIPOS>MOLECULE
ZINC000330515179
 41 42 1 0 0
SMALL
USER_CHARGES


@<TRIPOS>ATOM
      1 C1        -13.7236   -4.7623   56.1357 C.3     1  ZINC000330515179    0.0300
      2 O2        -12.9496   -5.3377   57.1903 O.3     1  ZINC000330515179   -0.3800
      3 C3        -11.7449   -4.6265   57.4816 C.3     1  ZINC000330515179    0.0700
      4 C4        -12.0775   -3.3677   58.2851 C.3     1  ZINC000330515179    0.0800
      5 H5        -12.3130   -2.5515   57.6021 H       1  ZINC000330515179    0.0800
      6 C6        -10.8731   -2.9796   59.1507 C.3     1  ZINC000330515179    0.0900
      7 N7        -11.2792   -1.8858   60.0473 N.am    1  ZINC000330515179   -1.0000
      8 S8        -10.3777   -0.5017   60.1660 S.o2    1  ZINC000330515179    2.6900
      9 O9         -9.1993   -0.7239   59.4036 O.2     1  ZINC000330515179   -0.9400
     10 O10       -11.2679    0.5790   59.9238 O.2     1  ZINC000330515179   -0.9500
     11 C11        -9.8640   -0.3564   61.8451 C.ar    1  ZINC000330515179   -0.6700
     12 C12       -10.6960    0.2418   62.7730 C.ar    1  ZINC000330515179   -0.0100
     13 C13       -10.2936    0.3557   64.0904 C.ar    1  ZINC000330515179   -0.1100
     14 C14        -9.0581   -0.1290   64.4803 C.ar    1  ZINC000330515179   -0.0400
     15 Br15       -8.5073    0.0258   66.2827 Br      1  ZINC000330515179   -0.0300
     16 C16        -8.2259   -0.7275   63.5516 C.ar    1  ZINC000330515179   -0.1100
     17 C17        -8.6314   -0.8457   62.2355 C.ar    1  ZINC000330515179   -0.0100
     18 C18       -12.5097   -2.0584   60.8356 C.3     1  ZINC000330515179    0.1000
     19 C19       -13.6343   -2.4913   59.8880 C.3     1  ZINC000330515179    0.1000
     20 C20       -14.8739   -2.8651   60.7031 C.3     1  ZINC000330515179   -0.1400
     21 C21       -13.9745   -1.3402   58.9392 C.3     1  ZINC000330515179   -0.1800
     22 O22       -13.2022   -3.6235   59.1296 O.3     1  ZINC000330515179   -0.3500
     23 H23       -14.6210   -5.3601   55.9759 H       1  ZINC000330515179    0.0900
     24 H24       -14.0079   -3.7455   56.4068 H       1  ZINC000330515179    0.0400
     25 H25       -13.1324   -4.7424   55.2202 H       1  ZINC000330515179    0.0400
     26 H26       -11.0786   -5.2634   58.0634 H       1  ZINC000330515179    0.0600
     27 H27       -11.2553   -4.3439   56.5497 H       1  ZINC000330515179    0.0700
     28 H28       -10.5532   -3.8384   59.7407 H       1  ZINC000330515179    0.0900
     29 H29       -10.0545   -2.6466   58.5125 H       1  ZINC000330515179    0.1000
     30 H30       -11.6605    0.6207   62.4684 H       1  ZINC000330515179    0.1500
     31 H31       -10.9435    0.8234   64.8152 H       1  ZINC000330515179    0.1500
     32 H32        -7.2613   -1.1062   63.8555 H       1  ZINC000330515179    0.1500
     33 H33        -7.9817   -1.3129   61.5103 H       1  ZINC000330515179    0.1500
     34 H34       -12.3545   -2.8244   61.5953 H       1  ZINC000330515179    0.0900
     35 H35       -12.7749   -1.1152   61.3134 H       1  ZINC000330515179    0.1000
     36 H36       -15.2005   -2.0025   61.2839 H       1  ZINC000330515179    0.0800
     37 H37       -15.6730   -3.1728   60.0287 H       1  ZINC000330515179    0.0700
     38 H38       -14.6312   -3.6863   61.3776 H       1  ZINC000330515179    0.0700
     39 H39       -13.0915   -1.0756   58.3575 H       1  ZINC000330515179    0.0600
     40 H40       -14.7741   -1.6487   58.2658 H       1  ZINC000330515179    0.0700
     41 H41       -14.3004   -0.4762   59.5184 H       1  ZINC000330515179    0.0700
@<TRIPOS>BOND
     1     1     2    1
     2     1    23    1
     3     1    24    1
     4     1    25    1
     5     2     3    1
     6     3     4    1
     7     3    26    1
     8     3    27    1
     9     4     5    1
    10     4    22    1
    11     4     6    1
    12     6     7    1
    13     6    28    1
    14     6    29    1
    15     7     8   am
    16     7    18    1
    17     8     9    2
    18     8    10    2
    19     8    11    1
    20    11    17   ar
    21    11    12   ar
    22    12    13   ar
    23    12    30    1
    24    13    14   ar
    25    13    31    1
    26    14    15    1
    27    14    16   ar
    28    16    17   ar
    29    16    32    1
    30    17    33    1
    31    18    19    1
    32    18    34    1
    33    18    35    1
    34    19    20    1
    35    19    21    1
    36    19    22    1
    37    20    36    1
    38    20    37    1
    39    20    38    1
    40    21    39    1
    41    21    40    1
    42    21    41    1
@<TRIPOS>SUBSTRUCTURE
     1 ZINC000330515179        1 TEMP              0 ****  ****    0 ROOT


##########                                Name:    ZINC001098311495
##########                DOCK_Rotatable_Bonds:                   8
##########                         Heavy_Atoms:                  24
##########                    Molecular_Weight:             328.454
##########                DOCK_Rotatable_Bonds:                   8
##########                       Formal_Charge:          0.00999987
##########                     HBond_Acceptors:                   4
##########                        HBond_Donors:                   1
##########                         Heavy_Atoms:                  24
##########                          Grid_Score:          -28.326511
##########                     Grid_vdw_energy:          -27.672108
##########                      Grid_es_energy:           -0.654403
##########           Internal_energy_repulsive:           18.690506

@<TRIPOS>MOLECULE
ZINC001098311495
 52 54 1 0 0
SMALL
USER_CHARGES


@<TRIPOS>ATOM
      1 C1        -11.1974    1.0769   52.6629 C.3     1  ZINC001098311495   -0.1500
      2 C2        -11.1075   -0.3979   53.0599 C.3     1  ZINC001098311495    0.0500
      3 O3        -10.2752   -0.5307   54.2139 O.3     1  ZINC001098311495   -0.2800
      4 C4         -8.9748   -0.1685   54.0803 C.ar    1  ZINC001098311495    0.1900
      5 C5         -8.3040   -0.4071   52.8903 C.ar    1  ZINC001098311495   -0.2200
      6 C6         -6.9783   -0.0437   52.7580 C.ar    1  ZINC001098311495   -0.0500
      7 C7         -6.3110    0.5666   53.8072 C.ar    1  ZINC001098311495   -0.1700
      8 C8         -6.9639    0.8169   54.9949 C.ar    1  ZINC001098311495   -0.0500
      9 C9         -8.3046    0.4542   55.1424 C.ar    1  ZINC001098311495   -0.1800
     10 C10        -9.0097    0.7193   56.4111 C.2     1  ZINC001098311495    0.5600
     11 O11        -9.6156    1.7624   56.5634 O.2     1  ZINC001098311495   -0.5200
     12 N12        -8.9820   -0.1948   57.4011 N.am    1  ZINC001098311495   -0.7200
     13 C13        -9.6835    0.0677   58.6602 C.3     1  ZINC001098311495    0.1600
     14 H14        -9.5714    1.1124   58.9500 H       1  ZINC001098311495    0.1000
     15 C15        -9.1660   -0.8702   59.7782 C.3     1  ZINC001098311495   -0.1200
     16 C16       -10.4298   -1.6883   60.1815 C.3     1  ZINC001098311495    0.0500
     17 H17       -10.2364   -2.6356   60.6846 H       1  ZINC001098311495    0.1100
     18 C18       -11.3490   -0.6927   60.9515 C.3     1  ZINC001098311495   -0.1500
     19 C19       -11.8775    0.2461   59.8394 C.3     1  ZINC001098311495   -0.1500
     20 C20       -11.1908   -0.3090   58.5372 C.3     1  ZINC001098311495    0.0400
     21 H21       -11.6778   -0.0418   57.5994 H       1  ZINC001098311495    0.1200
     22 N22       -11.1475   -1.7799   58.8601 N.3     1  ZINC001098311495   -0.4900
     23 C23       -12.5022   -2.3209   59.0332 C.3     1  ZINC001098311495    0.0600
     24 C24       -12.7027   -3.4829   58.0947 C.2     1  ZINC001098311495   -0.1600
     25 C25       -13.7693   -4.2358   58.2030 C.2     1  ZINC001098311495   -0.1200
     26 C26       -13.9699   -5.3977   57.2646 C.3     1  ZINC001098311495   -0.1200
     27 C27       -14.7957   -3.9398   59.2660 C.3     1  ZINC001098311495   -0.1200
     28 H28       -11.6241    1.6495   53.4863 H       1  ZINC001098311495    0.0700
     29 H29       -10.2000    1.4538   52.4367 H       1  ZINC001098311495    0.0700
     30 H30       -11.8323    1.1781   51.7826 H       1  ZINC001098311495    0.0800
     31 H31       -10.6808   -0.9705   52.2364 H       1  ZINC001098311495    0.0600
     32 H32       -12.1049   -0.7748   53.2860 H       1  ZINC001098311495    0.0600
     33 H33        -8.8176   -0.8822   52.0676 H       1  ZINC001098311495    0.1300
     34 H34        -6.4588   -0.2361   51.8309 H       1  ZINC001098311495    0.1300
     35 H35        -5.2744    0.8477   53.6940 H       1  ZINC001098311495    0.1300
     36 H36        -6.4396    1.2927   55.8105 H       1  ZINC001098311495    0.1300
     37 H37        -8.4975   -1.0264   57.2800 H       1  ZINC001098311495    0.4000
     38 H38        -8.7975   -0.2911   60.6249 H       1  ZINC001098311495    0.0800
     39 H39        -8.3876   -1.5303   59.3957 H       1  ZINC001098311495    0.0800
     40 H40       -12.1727   -1.2225   61.4300 H       1  ZINC001098311495    0.0700
     41 H41       -10.7741   -0.1303   61.6873 H       1  ZINC001098311495    0.0800
     42 H42       -12.9632    0.1815   59.7667 H       1  ZINC001098311495    0.0700
     43 H43       -11.5647    1.2738   60.0240 H       1  ZINC001098311495    0.0800
     44 H44       -13.2345   -1.5446   58.8118 H       1  ZINC001098311495    0.0500
     45 H45       -12.6300   -2.6583   60.0617 H       1  ZINC001098311495    0.0800
     46 H46       -11.9672   -3.6949   57.3328 H       1  ZINC001098311495    0.1100
     47 H47       -14.5186   -5.0632   56.3842 H       1  ZINC001098311495    0.0700
     48 H48       -14.5364   -6.1796   57.7704 H       1  ZINC001098311495    0.0600
     49 H49       -12.9998   -5.7908   56.9605 H       1  ZINC001098311495    0.0600
     50 H50       -14.4956   -4.4111   60.2020 H       1  ZINC001098311495    0.0700
     51 H51       -14.8699   -2.8619   59.4094 H       1  ZINC001098311495    0.0600
     52 H52       -15.7639   -4.3326   58.9556 H       1  ZINC001098311495    0.0600
@<TRIPOS>BOND
     1     1     2    1
     2     1    28    1
     3     1    29    1
     4     1    30    1
     5     2     3    1
     6     2    31    1
     7     2    32    1
     8     3     4    1
     9     4     9   ar
    10     4     5   ar
    11     5     6   ar
    12     5    33    1
    13     6     7   ar
    14     6    34    1
    15     7     8   ar
    16     7    35    1
    17     8     9   ar
    18     8    36    1
    19     9    10    1
    20    10    11    2
    21    10    12   am
    22    12    13    1
    23    12    37    1
    24    13    14    1
    25    13    20    1
    26    13    15    1
    27    15    16    1
    28    15    38    1
    29    15    39    1
    30    16    17    1
    31    16    22    1
    32    16    18    1
    33    18    19    1
    34    18    40    1
    35    18    41    1
    36    19    20    1
    37    19    42    1
    38    19    43    1
    39    20    21    1
    40    20    22    1
    41    22    23    1
    42    23    24    1
    43    23    44    1
    44    23    45    1
    45    24    25    2
    46    24    46    1
    47    25    26    1
    48    25    27    1
    49    26    47    1
    50    26    48    1
    51    26    49    1
    52    27    50    1
    53    27    51    1
    54    27    52    1
@<TRIPOS>SUBSTRUCTURE
     1 ZINC001098311495        1 TEMP              0 ****  ****    0 ROOT


##########                                Name:    ZINC000811540126
##########                DOCK_Rotatable_Bonds:                   7
##########                         Heavy_Atoms:                  21
##########                    Molecular_Weight:             397.212
##########                DOCK_Rotatable_Bonds:                   7
##########                       Formal_Charge:           0.0100001
##########                     HBond_Acceptors:                   4
##########                        HBond_Donors:                   3
##########                         Heavy_Atoms:                  21
##########                          Grid_Score:          -28.300507
##########                     Grid_vdw_energy:          -26.000841
##########                      Grid_es_energy:           -2.299665
##########           Internal_energy_repulsive:           10.882744

@<TRIPOS>MOLECULE
ZINC000811540126
 37 38 1 0 0
SMALL
USER_CHARGES


@<TRIPOS>ATOM
      1 C1          0.4751    2.4769   50.2169 C.3     1  ZINC000811540126   -0.1600
      2 C2         -0.9273    2.4020   49.6096 C.3     1  ZINC000811540126    0.1200
      3 H3         -1.3097    3.4107   49.4531 H       1  ZINC000811540126    0.1000
      4 N4         -0.8668    1.6981   48.3263 N.am    1  ZINC000811540126   -0.7200
      5 C5         -0.3287    2.3046   47.2497 C.2     1  ZINC000811540126    0.5700
      6 O6          0.1051    3.4367   47.3433 O.2     1  ZINC000811540126   -0.5100
      7 C7         -0.2662    1.5951   45.9578 C.ar    1  ZINC000811540126   -0.1600
      8 C8          0.9670    1.2098   45.4270 C.ar    1  ZINC000811540126   -0.0400
      9 C9          1.0185    0.5470   44.2191 C.ar    1  ZINC000811540126   -0.1200
     10 I10         2.8689   -0.0302   43.4242 I       1  ZINC000811540126   -0.0300
     11 C11        -0.1482    0.2606   43.5288 C.ar    1  ZINC000811540126   -0.0400
     12 C12        -1.3738    0.6364   44.0424 C.ar    1  ZINC000811540126   -0.1500
     13 C13        -1.4444    1.2986   45.2586 C.ar    1  ZINC000811540126    0.1900
     14 O14        -2.6479    1.6678   45.7645 O.3     1  ZINC000811540126   -0.4700
     15 C15        -1.8558    1.6465   50.5625 C.3     1  ZINC000811540126    0.1400
     16 H16        -1.6383    1.9388   51.5898 H       1  ZINC000811540126    0.1300
     17 O17        -1.6496    0.2404   50.4135 O.3     1  ZINC000811540126   -0.5400
     18 C18        -3.2889    1.9812   50.2378 C.ar    1  ZINC000811540126   -0.1200
     19 C19        -3.6811    3.3015   50.1216 C.ar    1  ZINC000811540126   -0.1100
     20 C20        -4.9956    3.6085   49.8238 C.ar    1  ZINC000811540126   -0.1100
     21 C21        -5.9179    2.5949   49.6419 C.ar    1  ZINC000811540126   -0.1200
     22 C22        -5.5255    1.2745   49.7573 C.ar    1  ZINC000811540126   -0.1100
     23 C23        -4.2100    0.9675   50.0508 C.ar    1  ZINC000811540126   -0.1100
     24 H24         1.1367    3.0151   49.5381 H       1  ZINC000811540126    0.0600
     25 H25         0.4301    3.0006   51.1717 H       1  ZINC000811540126    0.0700
     26 H26         0.8576    1.4683   50.3734 H       1  ZINC000811540126    0.0700
     27 H27        -1.2139    0.7954   48.2514 H       1  ZINC000811540126    0.3900
     28 H28         1.8788    1.4311   45.9617 H       1  ZINC000811540126    0.1300
     29 H29        -0.0989   -0.2593   42.5835 H       1  ZINC000811540126    0.1400
     30 H30        -2.2788    0.4099   43.4983 H       1  ZINC000811540126    0.1500
     31 H31        -3.2679    2.0008   45.1013 H       1  ZINC000811540126    0.4000
     32 H32        -0.7375   -0.0418   50.5667 H       1  ZINC000811540126    0.3700
     33 H33        -2.9606    4.0934   50.2637 H       1  ZINC000811540126    0.1100
     34 H34        -5.3022    4.6402   49.7336 H       1  ZINC000811540126    0.1200
     35 H35        -6.9451    2.8348   49.4100 H       1  ZINC000811540126    0.1200
     36 H36        -6.2462    0.4827   49.6154 H       1  ZINC000811540126    0.1300
     37 H37        -3.9035   -0.0641   50.1409 H       1  ZINC000811540126    0.1200
@<TRIPOS>BOND
     1     1     2    1
     2     1    24    1
     3     1    25    1
     4     1    26    1
     5     2     3    1
     6     2     4    1
     7     2    15    1
     8     4     5   am
     9     4    27    1
    10     5     6    2
    11     5     7    1
    12     7    13   ar
    13     7     8   ar
    14     8     9   ar
    15     8    28    1
    16     9    10    1
    17     9    11   ar
    18    11    12   ar
    19    11    29    1
    20    12    13   ar
    21    12    30    1
    22    13    14    1
    23    14    31    1
    24    15    16    1
    25    15    17    1
    26    15    18    1
    27    17    32    1
    28    18    23   ar
    29    18    19   ar
    30    19    20   ar
    31    19    33    1
    32    20    21   ar
    33    20    34    1
    34    21    22   ar
    35    21    35    1
    36    22    23   ar
    37    22    36    1
    38    23    37    1
@<TRIPOS>SUBSTRUCTURE
     1 ZINC000811540126        1 TEMP              0 ****  ****    0 ROOT


##########                                Name:    ZINC000680410869
##########                DOCK_Rotatable_Bonds:                   6
##########                         Heavy_Atoms:                  24
##########                    Molecular_Weight:             335.354
##########                DOCK_Rotatable_Bonds:                   6
##########                       Formal_Charge:        -1.04308e-07
##########                     HBond_Acceptors:                   7
##########                        HBond_Donors:                   0
##########                         Heavy_Atoms:                  24
##########                          Grid_Score:          -28.225164
##########                     Grid_vdw_energy:          -26.584713
##########                      Grid_es_energy:           -1.640451
##########           Internal_energy_repulsive:            9.316250

@<TRIPOS>MOLECULE
ZINC000680410869
 43 45 1 0 0
SMALL
USER_CHARGES


@<TRIPOS>ATOM
      1 O1         -3.7394    2.5071   48.0722 O.2     1  ZINC000680410869   -0.5200
      2 C2         -3.7470    2.1039   49.2191 C.2     1  ZINC000680410869    0.6100
      3 C3         -2.4726    1.8406   49.9179 C.2     1  ZINC000680410869    0.0100
      4 N4         -1.7426    2.7192   50.5757 N.2     1  ZINC000680410869   -0.2500
      5 N5         -0.6983    2.1497   51.0608 N.pl3   1  ZINC000680410869   -0.3500
      6 C6          0.3340    2.8256   51.8505 C.3     1  ZINC000680410869    0.5000
      7 F7          1.5751    2.2285   51.6045 F       1  ZINC000680410869   -0.1600
      8 F8          0.3869    4.1764   51.4904 F       1  ZINC000680410869   -0.1700
      9 C9         -0.6892    0.8384   50.7387 C.2     1  ZINC000680410869    0.0100
     10 C10        -1.8062    0.5959   50.0136 C.2     1  ZINC000680410869   -0.1700
     11 N11        -4.9183    1.9023   49.8547 N.am    1  ZINC000680410869   -0.6000
     12 C12        -6.2005    2.1575   49.1794 C.3     1  ZINC000680410869    0.0800
     13 C13        -7.0582    3.0441   50.0893 C.3     1  ZINC000680410869    0.0500
     14 O14        -7.1318    2.4530   51.3889 O.3     1  ZINC000680410869   -0.3700
     15 C15        -5.8712    2.3426   52.0540 C.3     1  ZINC000680410869    0.0800
     16 H16        -5.4152    3.3293   52.1362 H       1  ZINC000680410869    0.0600
     17 C17        -6.0805    1.7583   53.4524 C.3     1  ZINC000680410869   -0.1000
     18 C18        -7.3559    2.3421   54.0634 C.3     1  ZINC000680410869   -0.0800
     19 C19        -7.5988    1.7160   55.4126 C.ar    1  ZINC000680410869   -0.0800
     20 C20        -8.4740    0.6529   55.5335 C.ar    1  ZINC000680410869   -0.1200
     21 C21        -8.6969    0.0786   56.7710 C.ar    1  ZINC000680410869   -0.1200
     22 C22        -8.0442    0.5670   57.8874 C.ar    1  ZINC000680410869   -0.1300
     23 C23        -7.1683    1.6296   57.7662 C.ar    1  ZINC000680410869   -0.1200
     24 C24        -6.9422    2.2012   56.5281 C.ar    1  ZINC000680410869   -0.1200
     25 C25        -4.9527    1.4146   51.2427 C.3     1  ZINC000680410869    0.0600
     26 H26         0.0940    2.7412   52.9104 H       1  ZINC000680410869    0.1700
     27 H27         0.0662    0.1166   51.0122 H       1  ZINC000680410869    0.1900
     28 H28        -2.1200   -0.3476   49.5920 H       1  ZINC000680410869    0.1700
     29 H29        -6.0216    2.6674   48.2327 H       1  ZINC000680410869    0.1000
     30 H30        -6.7137    1.2133   48.9971 H       1  ZINC000680410869    0.0800
     31 H31        -6.6066    4.0334   50.1644 H       1  ZINC000680410869    0.0600
     32 H32        -8.0613    3.1317   49.6719 H       1  ZINC000680410869    0.1100
     33 H33        -6.1740    0.6745   53.3831 H       1  ZINC000680410869    0.0800
     34 H34        -5.2276    2.0098   54.0827 H       1  ZINC000680410869    0.0800
     35 H35        -7.2433    3.4202   54.1782 H       1  ZINC000680410869    0.0700
     36 H36        -8.2015    2.1329   53.4082 H       1  ZINC000680410869    0.0800
     37 H37        -8.9840    0.2712   54.6614 H       1  ZINC000680410869    0.1200
     38 H38        -9.3811   -0.7517   56.8657 H       1  ZINC000680410869    0.1200
     39 H39        -8.2188    0.1188   58.8544 H       1  ZINC000680410869    0.1200
     40 H40        -6.6586    2.0115   58.6385 H       1  ZINC000680410869    0.1200
     41 H41        -6.2579    3.0313   56.4333 H       1  ZINC000680410869    0.1200
     42 H42        -5.3421    0.3970   51.2705 H       1  ZINC000680410869    0.0800
     43 H43        -3.9469    1.4351   51.6624 H       1  ZINC000680410869    0.1300
@<TRIPOS>BOND
     1     1     2    2
     2     2     3    1
     3     2    11   am
     4     3    10    1
     5     3     4    2
     6     4     5    1
     7     5     6    1
     8     5     9    1
     9     6     7    1
    10     6     8    1
    11     6    26    1
    12     9    10    2
    13     9    27    1
    14    10    28    1
    15    11    25    1
    16    11    12    1
    17    12    13    1
    18    12    29    1
    19    12    30    1
    20    13    14    1
    21    13    31    1
    22    13    32    1
    23    14    15    1
    24    15    16    1
    25    15    17    1
    26    15    25    1
    27    17    18    1
    28    17    33    1
    29    17    34    1
    30    18    19    1
    31    18    35    1
    32    18    36    1
    33    19    24   ar
    34    19    20   ar
    35    20    21   ar
    36    20    37    1
    37    21    22   ar
    38    21    38    1
    39    22    23   ar
    40    22    39    1
    41    23    24   ar
    42    23    40    1
    43    24    41    1
    44    25    42    1
    45    25    43    1
@<TRIPOS>SUBSTRUCTURE
     1 ZINC000680410869        1 TEMP              0 ****  ****    0 ROOT


##########                                Name:    ZINC000469391664
##########                DOCK_Rotatable_Bonds:                   6
##########                         Heavy_Atoms:                  29
##########                    Molecular_Weight:             408.524
##########                DOCK_Rotatable_Bonds:                   6
##########                       Formal_Charge:         -0.00999999
##########                     HBond_Acceptors:                   7
##########                        HBond_Donors:                   0
##########                         Heavy_Atoms:                  29
##########                          Grid_Score:          -28.207653
##########                     Grid_vdw_energy:          -28.219732
##########                      Grid_es_energy:            0.012080
##########           Internal_energy_repulsive:           23.699114

@<TRIPOS>MOLECULE
ZINC000469391664
 53 56 1 0 0
SMALL
USER_CHARGES


@<TRIPOS>ATOM
      1 C1        -10.3798    1.7659   52.0150 C.3     1  ZINC000469391664   -0.1500
      2 C2        -10.4535    0.5493   52.9398 C.3     1  ZINC000469391664   -0.1000
      3 H3        -10.4306   -0.3625   52.3430 H       1  ZINC000469391664    0.0800
      4 C4        -11.7541    0.5991   53.7450 C.3     1  ZINC000469391664   -0.1300
      5 C5        -11.8407   -0.6379   54.6444 C.3     1  ZINC000469391664    0.1100
      6 N6        -10.6248   -0.7116   55.4660 N.am    1  ZINC000469391664   -0.6100
      7 C7        -10.7074   -0.8112   56.8075 C.2     1  ZINC000469391664    0.5600
      8 O8         -9.6937   -0.8713   57.4763 O.2     1  ZINC000469391664   -0.5000
      9 C9        -12.0276   -0.8472   57.4643 C.ar    1  ZINC000469391664   -0.1100
     10 C10       -12.7917    0.3170   57.5701 C.ar    1  ZINC000469391664   -0.0900
     11 C11       -14.0248    0.2767   58.1846 C.ar    1  ZINC000469391664   -0.1000
     12 C12       -14.5114   -0.9139   58.6995 C.ar    1  ZINC000469391664   -0.0900
     13 C13       -13.7675   -2.0728   58.6031 C.ar    1  ZINC000469391664   -0.1000
     14 C14       -12.5259   -2.0527   57.9818 C.ar    1  ZINC000469391664    0.1500
     15 N15       -11.7742   -3.2198   57.8834 N.am    1  ZINC000469391664   -0.5800
     16 C16       -12.0200   -4.1592   56.7865 C.3     1  ZINC000469391664    0.0900
     17 C17       -10.8200   -3.4858   58.7974 C.2     1  ZINC000469391664    0.6100
     18 O18       -10.1625   -4.5064   58.7114 O.2     1  ZINC000469391664   -0.5200
     19 C19       -10.5742   -2.5462   59.8946 C.2     1  ZINC000469391664   -0.2600
     20 C20        -9.3570   -2.0256   60.2350 C.2     1  ZINC000469391664   -0.0500
     21 C21        -9.4138   -1.1668   61.3068 C.2     1  ZINC000469391664   -0.1500
     22 C22       -10.6336   -0.9887   61.8277 C.2     1  ZINC000469391664   -0.2600
     23 S23       -11.7987   -1.9019   60.9795 S.3     1  ZINC000469391664    0.2300
     24 C24        -9.3171   -0.6748   54.7972 C.3     1  ZINC000469391664    0.1000
     25 C25        -9.2589    0.5628   53.8963 C.3     1  ZINC000469391664    0.1300
     26 H26        -9.2947    1.4623   54.5110 H       1  ZINC000469391664    0.1000
     27 N27        -8.0139    0.5475   53.1242 N.pl3   1  ZINC000469391664   -0.4500
     28 C28        -7.0162    1.4834   53.1733 C.2     1  ZINC000469391664   -0.0500
     29 C29        -6.0635    1.0828   52.3098 C.2     1  ZINC000469391664   -0.0300
     30 N30        -6.4685   -0.0661   51.7488 N.2     1  ZINC000469391664   -0.4900
     31 C31        -7.6336   -0.3956   52.2356 C.2     1  ZINC000469391664    0.1800
     32 H32        -9.4538    1.7303   51.4410 H       1  ZINC000469391664    0.0600
     33 H33       -11.2303    1.7561   51.3333 H       1  ZINC000469391664    0.0600
     34 H34       -10.4027    2.6778   52.6116 H       1  ZINC000469391664    0.0600
     35 H35       -11.7664    1.4982   54.3610 H       1  ZINC000469391664    0.0700
     36 H36       -12.6040    0.6131   53.0628 H       1  ZINC000469391664    0.0900
     37 H37       -12.7145   -0.5590   55.2912 H       1  ZINC000469391664    0.1000
     38 H38       -11.9198   -1.5333   54.0278 H       1  ZINC000469391664    0.0800
     39 H39       -12.4167    1.2478   57.1710 H       1  ZINC000469391664    0.1400
     40 H40       -14.6145    1.1778   58.2654 H       1  ZINC000469391664    0.1400
     41 H41       -15.4786   -0.9354   59.1796 H       1  ZINC000469391664    0.1400
     42 H42       -14.1536   -2.9968   59.0072 H       1  ZINC000469391664    0.1400
     43 H43       -11.3272   -3.9541   55.9704 H       1  ZINC000469391664    0.0600
     44 H44       -11.8717   -5.1791   57.1414 H       1  ZINC000469391664    0.0900
     45 H45       -13.0440   -4.0434   56.4316 H       1  ZINC000469391664    0.0700
     46 H46        -8.4419   -2.2654   59.7141 H       1  ZINC000469391664    0.1500
     47 H47        -8.5379   -0.6722   61.7000 H       1  ZINC000469391664    0.1400
     48 H48       -10.8519   -0.3489   62.6700 H       1  ZINC000469391664    0.1600
     49 H49        -8.5258   -0.6201   55.5447 H       1  ZINC000469391664    0.1000
     50 H50        -9.1903   -1.5731   54.1930 H       1  ZINC000469391664    0.0800
     51 H51        -6.9970    2.3723   53.7863 H       1  ZINC000469391664    0.1700
     52 H52        -5.1360    1.5969   52.1050 H       1  ZINC000469391664    0.1700
     53 H53        -8.2026   -1.2735   51.9673 H       1  ZINC000469391664    0.2000
@<TRIPOS>BOND
     1     1     2    1
     2     1    32    1
     3     1    33    1
     4     1    34    1
     5     2     3    1
     6     2    25    1
     7     2     4    1
     8     4     5    1
     9     4    35    1
    10     4    36    1
    11     5     6    1
    12     5    37    1
    13     5    38    1
    14     6     7   am
    15     6    24    1
    16     7     8    2
    17     7     9    1
    18     9    14   ar
    19     9    10   ar
    20    10    11   ar
    21    10    39    1
    22    11    12   ar
    23    11    40    1
    24    12    13   ar
    25    12    41    1
    26    13    14   ar
    27    13    42    1
    28    14    15    1
    29    15    16    1
    30    15    17   am
    31    16    43    1
    32    16    44    1
    33    16    45    1
    34    17    18    2
    35    17    19    1
    36    19    23    1
    37    19    20    2
    38    20    21    1
    39    20    46    1
    40    21    22    2
    41    21    47    1
    42    22    23    1
    43    22    48    1
    44    24    25    1
    45    24    49    1
    46    24    50    1
    47    25    26    1
    48    25    27    1
    49    27    31    1
    50    27    28    1
    51    28    29    2
    52    28    51    1
    53    29    30    1
    54    29    52    1
    55    30    31    2
    56    31    53    1
@<TRIPOS>SUBSTRUCTURE
     1 ZINC000469391664        1 TEMP              0 ****  ****    0 ROOT


##########                                Name:    ZINC000566738344
##########                DOCK_Rotatable_Bonds:                   5
##########                         Heavy_Atoms:                  23
##########                    Molecular_Weight:             352.478
##########                DOCK_Rotatable_Bonds:                   5
##########                       Formal_Charge:           0.0100005
##########                     HBond_Acceptors:                   7
##########                        HBond_Donors:                   0
##########                         Heavy_Atoms:                  23
##########                          Grid_Score:          -28.205521
##########                     Grid_vdw_energy:          -28.027819
##########                      Grid_es_energy:           -0.177701
##########           Internal_energy_repulsive:           26.584047

@<TRIPOS>MOLECULE
ZINC000566738344
 43 44 1 0 0
SMALL
USER_CHARGES


@<TRIPOS>ATOM
      1 C1          1.8068    0.4747   45.3709 C.3     1  ZINC000566738344   -0.1300
      2 C2          0.5013    1.0482   45.8584 C.ar    1  ZINC000566738344   -0.0100
      3 C3          0.4476    1.7118   47.0625 C.ar    1  ZINC000566738344   -0.1000
      4 C4         -0.7587    2.2416   47.5140 C.ar    1  ZINC000566738344   -0.0500
      5 S5         -0.8235    3.0902   49.0569 S.3     1  ZINC000566738344   -0.0300
      6 C6         -1.9926    2.0938   50.0219 C.3     1  ZINC000566738344   -0.1200
      7 H7         -2.9338    2.0104   49.4785 H       1  ZINC000566738344    0.1200
      8 C8         -1.4084    0.6979   50.2472 C.3     1  ZINC000566738344   -0.1300
      9 C9         -2.2381    2.7565   51.3530 C.2     1  ZINC000566738344    0.5200
     10 O10        -1.3113    2.9640   52.1072 O.2     1  ZINC000566738344   -0.5000
     11 N11        -3.4876    3.1186   51.7052 N.am    1  ZINC000566738344   -0.6000
     12 C12        -3.7259    3.7645   52.9983 C.3     1  ZINC000566738344    0.0600
     13 C13        -4.6074    2.8665   50.7950 C.3     1  ZINC000566738344    0.1500
     14 H14        -4.2691    2.9606   49.7630 H       1  ZINC000566738344    0.1300
     15 C15        -5.1576    1.4491   51.0318 C.3     1  ZINC000566738344   -0.1300
     16 C16        -6.5184    1.3723   50.2927 C.3     1  ZINC000566738344   -0.5900
     17 S17        -7.2844    2.9872   50.6987 S.o2    1  ZINC000566738344    2.4000
     18 O18        -7.8807    3.5326   49.5299 O.2     1  ZINC000566738344   -0.9300
     19 O19        -8.0491    2.8595   51.8896 O.2     1  ZINC000566738344   -0.9300
     20 C20        -5.7344    3.8829   51.0656 C.3     1  ZINC000566738344   -0.6200
     21 C21        -1.9136    2.1026   46.7487 C.ar    1  ZINC000566738344   -0.1400
     22 C22        -1.8664    1.4400   45.5434 C.ar    1  ZINC000566738344   -0.0400
     23 C23        -0.6558    0.9115   45.0848 C.ar    1  ZINC000566738344   -0.0400
     24 C24        -0.6033    0.2215   43.8311 C.1     1  ZINC000566738344    0.2500
     25 N25        -0.5616   -0.3259   42.8365 N.1     1  ZINC000566738344   -0.4100
     26 H26         2.3339    1.2231   44.7791 H       1  ZINC000566738344    0.0800
     27 H27         2.4201    0.1895   46.2256 H       1  ZINC000566738344    0.0800
     28 H28         1.6106   -0.4031   44.7552 H       1  ZINC000566738344    0.0700
     29 H29         1.3416    1.8215   47.6583 H       1  ZINC000566738344    0.1400
     30 H30        -0.5144    0.7737   50.8664 H       1  ZINC000566738344    0.0800
     31 H31        -2.1460    0.0719   50.7494 H       1  ZINC000566738344    0.0800
     32 H32        -1.1484    0.2534   49.2866 H       1  ZINC000566738344    0.0900
     33 H33        -3.6403    4.8454   52.8860 H       1  ZINC000566738344    0.0700
     34 H34        -4.7265    3.5140   53.3506 H       1  ZINC000566738344    0.0800
     35 H35        -2.9883    3.4148   53.7206 H       1  ZINC000566738344    0.0800
     36 H36        -4.4693    0.7085   50.6244 H       1  ZINC000566738344    0.1100
     37 H37        -5.3020    1.2781   52.0986 H       1  ZINC000566738344    0.0900
     38 H38        -6.3697    1.2740   49.2174 H       1  ZINC000566738344    0.1400
     39 H39        -7.1219    0.5501   50.6775 H       1  ZINC000566738344    0.1400
     40 H40        -5.7181    4.1996   52.1085 H       1  ZINC000566738344    0.1400
     41 H41        -5.6299    4.7443   50.4059 H       1  ZINC000566738344    0.1500
     42 H42        -2.8474    2.5150   47.1014 H       1  ZINC000566738344    0.1200
     43 H43        -2.7625    1.3322   44.9504 H       1  ZINC000566738344    0.1400
@<TRIPOS>BOND
     1     1     2    1
     2     1    26    1
     3     1    27    1
     4     1    28    1
     5     2    23   ar
     6     2     3   ar
     7     3     4   ar
     8     3    29    1
     9     4     5    1
    10     4    21   ar
    11     5     6    1
    12     6     7    1
    13     6     8    1
    14     6     9    1
    15     8    30    1
    16     8    31    1
    17     8    32    1
    18     9    10    2
    19     9    11   am
    20    11    12    1
    21    11    13    1
    22    12    33    1
    23    12    34    1
    24    12    35    1
    25    13    14    1
    26    13    20    1
    27    13    15    1
    28    15    16    1
    29    15    36    1
    30    15    37    1
    31    16    17    1
    32    16    38    1
    33    16    39    1
    34    17    18    2
    35    17    19    2
    36    17    20    1
    37    20    40    1
    38    20    41    1
    39    21    22   ar
    40    21    42    1
    41    22    23   ar
    42    22    43    1
    43    23    24    1
    44    24    25    3
@<TRIPOS>SUBSTRUCTURE
     1 ZINC000566738344        1 TEMP              0 ****  ****    0 ROOT


##########                                Name:    ZINC000279593480
##########                DOCK_Rotatable_Bonds:                   9
##########                         Heavy_Atoms:                  23
##########                    Molecular_Weight:              340.85
##########                DOCK_Rotatable_Bonds:                   9
##########                       Formal_Charge:          -0.0500002
##########                     HBond_Acceptors:                   6
##########                        HBond_Donors:                   3
##########                         Heavy_Atoms:                  23
##########                          Grid_Score:          -28.201115
##########                     Grid_vdw_energy:          -27.844782
##########                      Grid_es_energy:           -0.356332
##########           Internal_energy_repulsive:           13.705037

@<TRIPOS>MOLECULE
ZINC000279593480
 48 49 1 0 0
SMALL
USER_CHARGES


@<TRIPOS>ATOM
      1 C1         -7.3555    1.3032   51.9634 C.3     1  ZINC000279593480   -0.1400
      2 C2         -6.6962    1.5641   50.6076 C.3     1  ZINC000279593480   -0.1400
      3 C3         -5.2709    2.0764   50.8237 C.3     1  ZINC000279593480    0.1700
      4 H4         -4.7677    1.4505   51.5607 H       1  ZINC000279593480    0.0900
      5 C5         -5.3188    3.5200   51.3281 C.3     1  ZINC000279593480   -0.0900
      6 C6         -4.4402    3.6564   52.5449 C.ar    1  ZINC000279593480   -0.0800
      7 C7         -3.0784    3.8424   52.3964 C.ar    1  ZINC000279593480   -0.1000
      8 C8         -2.2720    3.9676   53.5120 C.ar    1  ZINC000279593480   -0.1100
      9 C9         -2.8280    3.9068   54.7774 C.ar    1  ZINC000279593480   -0.0400
     10 Cl10       -1.8160    4.0645   56.1791 Cl      1  ZINC000279593480   -0.0700
     11 C11        -4.1909    3.7207   54.9253 C.ar    1  ZINC000279593480   -0.1100
     12 C12        -4.9971    3.6012   53.8090 C.ar    1  ZINC000279593480   -0.1000
     13 N13        -4.5364    2.0258   49.5571 N.am    1  ZINC000279593480   -0.7400
     14 C14        -3.2725    1.5586   49.5291 C.2     1  ZINC000279593480    0.7100
     15 O15        -2.7424    1.1778   50.5551 O.2     1  ZINC000279593480   -0.5800
     16 N16        -2.5962    1.5136   48.3642 N.am    1  ZINC000279593480   -0.7500
     17 C17        -1.2230    1.0042   48.3337 C.3     1  ZINC000279593480    0.1200
     18 C18        -0.5049    1.5477   47.0968 C.3     1  ZINC000279593480    0.0900
     19 O19        -0.6819    2.9623   46.9978 O.3     1  ZINC000279593480   -0.5400
     20 C20         0.9973    1.1889   47.1417 C.3     1  ZINC000279593480   -0.1900
     21 C21         1.2119    0.3139   45.8868 C.3     1  ZINC000279593480    0.0500
     22 O22         0.1488    0.6936   44.9859 O.3     1  ZINC000279593480   -0.3600
     23 C23        -1.0203    0.8470   45.8201 C.3     1  ZINC000279593480    0.0900
     24 H24        -1.4414   -0.1278   46.0660 H       1  ZINC000279593480    0.0800
     25 C25        -2.0655    1.7160   45.1178 C.3     1  ZINC000279593480   -0.1400
     26 H26        -7.3854    2.2295   52.5372 H       1  ZINC000279593480    0.0600
     27 H27        -8.3709    0.9382   51.8094 H       1  ZINC000279593480    0.0400
     28 H28        -6.7798    0.5559   52.5095 H       1  ZINC000279593480    0.0600
     29 H29        -6.6663    0.6378   50.0338 H       1  ZINC000279593480    0.0600
     30 H30        -7.2719    2.3114   50.0614 H       1  ZINC000279593480    0.0700
     31 H31        -4.9626    4.1903   50.5458 H       1  ZINC000279593480    0.0800
     32 H32        -6.3446    3.7796   51.5897 H       1  ZINC000279593480    0.0900
     33 H33        -2.6444    3.8895   51.4085 H       1  ZINC000279593480    0.1300
     34 H34        -1.2081    4.1125   53.3959 H       1  ZINC000279593480    0.1300
     35 H35        -4.6255    3.6728   55.9129 H       1  ZINC000279593480    0.1300
     36 H36        -6.0611    3.4563   53.9243 H       1  ZINC000279593480    0.1300
     37 H37        -4.9597    2.3286   48.7386 H       1  ZINC000279593480    0.3900
     38 H38        -3.0187    1.8186   47.5461 H       1  ZINC000279593480    0.3900
     39 H39        -0.6956    1.3271   49.2312 H       1  ZINC000279593480    0.0800
     40 H40        -1.2403   -0.0850   48.2944 H       1  ZINC000279593480    0.0800
     41 H41        -1.6057    3.2389   46.9266 H       1  ZINC000279593480    0.3700
     42 H42         1.6071    2.0906   47.0873 H       1  ZINC000279593480    0.0900
     43 H43         1.2283    0.6243   48.0450 H       1  ZINC000279593480    0.0900
     44 H44         2.1827    0.5250   45.4384 H       1  ZINC000279593480    0.1000
     45 H45         1.1330   -0.7426   46.1429 H       1  ZINC000279593480    0.0600
     46 H46        -2.3770    1.2326   44.1919 H       1  ZINC000279593480    0.0600
     47 H47        -2.9295    1.8434   45.7699 H       1  ZINC000279593480    0.0700
     48 H48        -1.6343    2.6912   44.8912 H       1  ZINC000279593480    0.0700
@<TRIPOS>BOND
     1     1     2    1
     2     1    26    1
     3     1    27    1
     4     1    28    1
     5     2     3    1
     6     2    29    1
     7     2    30    1
     8     3     4    1
     9     3     5    1
    10     3    13    1
    11     5     6    1
    12     5    31    1
    13     5    32    1
    14     6    12   ar
    15     6     7   ar
    16     7     8   ar
    17     7    33    1
    18     8     9   ar
    19     8    34    1
    20     9    10    1
    21     9    11   ar
    22    11    12   ar
    23    11    35    1
    24    12    36    1
    25    13    14   am
    26    13    37    1
    27    14    15    2
    28    14    16   am
    29    16    17    1
    30    16    38    1
    31    17    18    1
    32    17    39    1
    33    17    40    1
    34    18    23    1
    35    18    19    1
    36    18    20    1
    37    19    41    1
    38    20    21    1
    39    20    42    1
    40    20    43    1
    41    21    22    1
    42    21    44    1
    43    21    45    1
    44    22    23    1
    45    23    24    1
    46    23    25    1
    47    25    46    1
    48    25    47    1
    49    25    48    1
@<TRIPOS>SUBSTRUCTURE
     1 ZINC000279593480        1 TEMP              0 ****  ****    0 ROOT


##########                                Name:    ZINC001011267435
##########                DOCK_Rotatable_Bonds:                   7
##########                         Heavy_Atoms:                  24
##########                    Molecular_Weight:             331.458
##########                DOCK_Rotatable_Bonds:                   7
##########                       Formal_Charge:        -4.47035e-08
##########                     HBond_Acceptors:                   5
##########                        HBond_Donors:                   0
##########                         Heavy_Atoms:                  24
##########                          Grid_Score:          -28.200281
##########                     Grid_vdw_energy:          -29.524979
##########                      Grid_es_energy:            1.324697
##########           Internal_energy_repulsive:           39.355587

@<TRIPOS>MOLECULE
ZINC001011267435
 53 54 1 0 0
SMALL
USER_CHARGES


@<TRIPOS>ATOM
      1 C1         -7.6609    1.6591   57.0665 C.3     1  ZINC001011267435   -0.1500
      2 C2         -7.3725    0.9098   55.7641 C.3     1  ZINC001011267435   -0.1200
      3 C3         -7.2435    1.9130   54.6162 C.3     1  ZINC001011267435   -0.0700
      4 C4         -6.9569    1.1751   53.3339 C.ar    1  ZINC001011267435    0.1300
      5 C5         -6.4102    1.8560   52.2637 C.ar    1  ZINC001011267435   -0.1200
      6 C6         -6.1488    1.1600   51.0793 C.ar    1  ZINC001011267435   -0.0800
      7 C7         -5.5626    1.8480   49.9056 C.2     1  ZINC001011267435    0.5600
      8 O8         -6.2817    2.2309   49.0039 O.2     1  ZINC001011267435   -0.5200
      9 N9         -4.2316    2.0493   49.8377 N.am    1  ZINC001011267435   -0.6100
     10 C10        -3.3492    1.5863   50.9179 C.3     1  ZINC001011267435    0.0700
     11 C11        -2.2684    0.6812   50.3138 C.3     1  ZINC001011267435    0.1000
     12 N12        -1.6735    1.3672   49.1582 N.am    1  ZINC001011267435   -0.6200
     13 C13        -0.3425    1.5677   49.0899 C.2     1  ZINC001011267435    0.5300
     14 O14         0.3758    1.1806   49.9873 O.2     1  ZINC001011267435   -0.5300
     15 C15         0.2532    2.2727   47.8988 C.3     1  ZINC001011267435   -0.1100
     16 H16        -0.3838    3.1108   47.6165 H       1  ZINC001011267435    0.0900
     17 C17         0.3579    1.2945   46.7269 C.3     1  ZINC001011267435   -0.1500
     18 C18         1.6478    2.7901   48.2572 C.3     1  ZINC001011267435   -0.0800
     19 C19         2.2805    3.4449   47.0277 C.3     1  ZINC001011267435   -0.1500
     20 C20         1.5356    3.8204   49.3827 C.3     1  ZINC001011267435   -0.1500
     21 C21        -2.5560    1.8302   48.0780 C.3     1  ZINC001011267435    0.0900
     22 C22        -3.6362    2.7303   48.6795 C.3     1  ZINC001011267435    0.1000
     23 C23        -6.4557   -0.2031   51.0338 C.ar    1  ZINC001011267435   -0.1600
     24 C24        -7.0008   -0.8047   52.1519 C.ar    1  ZINC001011267435    0.1100
     25 N25        -7.2264   -0.1126   53.2505 N.ar    1  ZINC001011267435   -0.4600
     26 H26        -6.8440    2.3493   57.2771 H       1  ZINC001011267435    0.0600
     27 H27        -8.5915    2.2176   56.9657 H       1  ZINC001011267435    0.0500
     28 H28        -7.7528    0.9443   57.8842 H       1  ZINC001011267435    0.0600
     29 H29        -6.4419    0.3512   55.8648 H       1  ZINC001011267435    0.0700
     30 H30        -8.1895    0.2196   55.5534 H       1  ZINC001011267435    0.0600
     31 H31        -8.1748    2.4702   54.5144 H       1  ZINC001011267435    0.0800
     32 H32        -6.4277    2.6042   54.8277 H       1  ZINC001011267435    0.0900
     33 H33        -6.1882    2.9102   52.3404 H       1  ZINC001011267435    0.1400
     34 H34        -2.8804    2.4439   51.4004 H       1  ZINC001011267435    0.0800
     35 H35        -3.9301    1.0243   51.6492 H       1  ZINC001011267435    0.1100
     36 H36        -1.4976    0.4843   51.0589 H       1  ZINC001011267435    0.1100
     37 H37        -2.7167   -0.2583   49.9905 H       1  ZINC001011267435    0.0700
     38 H38         0.8641    1.7799   45.8925 H       1  ZINC001011267435    0.0800
     39 H39         0.9260    0.4170   47.0358 H       1  ZINC001011267435    0.0600
     40 H40        -0.6418    0.9896   46.4177 H       1  ZINC001011267435    0.0600
     41 H41         2.2703    1.9583   48.5867 H       1  ZINC001011267435    0.0800
     42 H42         3.2739    3.8136   47.2830 H       1  ZINC001011267435    0.0600
     43 H43         2.3603    2.7109   46.2258 H       1  ZINC001011267435    0.0600
     44 H44         1.6578    4.2767   46.6982 H       1  ZINC001011267435    0.0600
     45 H45         1.0849    3.3539   50.2587 H       1  ZINC001011267435    0.0600
     46 H46         2.5291    4.1891   49.6381 H       1  ZINC001011267435    0.0600
     47 H47         0.9130    4.6523   49.0532 H       1  ZINC001011267435    0.0500
     48 H48        -1.9752    2.3922   47.3466 H       1  ZINC001011267435    0.1000
     49 H49        -3.0248    0.9725   47.5956 H       1  ZINC001011267435    0.0800
     50 H50        -4.4062    2.9264   47.9334 H       1  ZINC001011267435    0.1100
     51 H51        -3.1900    3.6704   49.0041 H       1  ZINC001011267435    0.0800
     52 H52        -6.2698   -0.7772   50.1381 H       1  ZINC001011267435    0.1500
     53 H53        -7.2416   -1.8572   52.1264 H       1  ZINC001011267435    0.1700
@<TRIPOS>BOND
     1     1     2    1
     2     1    26    1
     3     1    27    1
     4     1    28    1
     5     2     3    1
     6     2    29    1
     7     2    30    1
     8     3     4    1
     9     3    31    1
    10     3    32    1
    11     4    25   ar
    12     4     5   ar
    13     5     6   ar
    14     5    33    1
    15     6     7    1
    16     6    23   ar
    17     7     8    2
    18     7     9   am
    19     9    22    1
    20     9    10    1
    21    10    11    1
    22    10    34    1
    23    10    35    1
    24    11    12    1
    25    11    36    1
    26    11    37    1
    27    12    13   am
    28    12    21    1
    29    13    14    2
    30    13    15    1
    31    15    16    1
    32    15    17    1
    33    15    18    1
    34    17    38    1
    35    17    39    1
    36    17    40    1
    37    18    19    1
    38    18    20    1
    39    18    41    1
    40    19    42    1
    41    19    43    1
    42    19    44    1
    43    20    45    1
    44    20    46    1
    45    20    47    1
    46    21    22    1
    47    21    48    1
    48    21    49    1
    49    22    50    1
    50    22    51    1
    51    23    24   ar
    52    23    52    1
    53    24    25   ar
    54    24    53    1
@<TRIPOS>SUBSTRUCTURE
     1 ZINC001011267435        1 TEMP              0 ****  ****    0 ROOT


##########                                Name:    ZINC000347662449
##########                DOCK_Rotatable_Bonds:                   5
##########                         Heavy_Atoms:                  23
##########                    Molecular_Weight:              327.45
##########                DOCK_Rotatable_Bonds:                   5
##########                       Formal_Charge:                0.03
##########                     HBond_Acceptors:                   5
##########                        HBond_Donors:                   0
##########                         Heavy_Atoms:                  23
##########                          Grid_Score:          -28.184845
##########                     Grid_vdw_energy:          -27.662174
##########                      Grid_es_energy:           -0.522672
##########           Internal_energy_repulsive:            5.658705

@<TRIPOS>MOLECULE
ZINC000347662449
 44 46 1 0 0
SMALL
USER_CHARGES


@<TRIPOS>ATOM
      1 C1         -4.2577    2.2744   50.7676 C.2     1  ZINC000347662449   -0.1800
      2 C2         -5.2835    1.9973   50.0014 C.2     1  ZINC000347662449   -0.1700
      3 C3         -6.1643    0.8167   50.3195 C.3     1  ZINC000347662449    0.1600
      4 N4         -6.6539    0.9294   51.6957 N.am    1  ZINC000347662449   -0.6200
      5 C5         -6.9762    2.1985   52.3586 C.3     1  ZINC000347662449    0.1100
      6 C6         -7.8395    1.8170   53.5815 C.3     1  ZINC000347662449   -0.1100
      7 C7         -7.3789    0.3660   53.8523 C.3     1  ZINC000347662449   -0.1200
      8 H8         -6.5810    0.3513   54.5947 H       1  ZINC000347662449    0.1400
      9 S9         -8.7730   -0.6488   54.4027 S.3     1  ZINC000347662449    0.0300
     10 C10        -8.8278   -0.1961   56.1047 C.2     1  ZINC000347662449    0.1900
     11 N11        -8.0168    0.6455   56.7023 N.2     1  ZINC000347662449   -0.4500
     12 C12        -8.3560    0.7467   57.9986 C.2     1  ZINC000347662449   -0.0100
     13 C13        -9.4114   -0.0541   58.2248 C.2     1  ZINC000347662449   -0.0400
     14 N14        -9.7238   -0.6558   57.0244 N.pl3   1  ZINC000347662449   -0.4000
     15 C15       -10.7598   -1.5720   56.7948 C.ar    1  ZINC000347662449    0.1100
     16 C16       -10.6797   -2.8568   57.3140 C.ar    1  ZINC000347662449   -0.1100
     17 C17       -11.7021   -3.7575   57.0861 C.ar    1  ZINC000347662449   -0.1000
     18 C18       -12.8043   -3.3803   56.3415 C.ar    1  ZINC000347662449   -0.0800
     19 C19       -13.9182   -4.3650   56.0951 C.3     1  ZINC000347662449   -0.1200
     20 C20       -12.8869   -2.1009   55.8229 C.ar    1  ZINC000347662449   -0.0700
     21 C21       -14.0901   -1.6936   55.0119 C.3     1  ZINC000347662449   -0.1200
     22 C22       -11.8707   -1.1943   56.0523 C.ar    1  ZINC000347662449   -0.1100
     23 C23        -6.8709   -0.1166   52.5115 C.2     1  ZINC000347662449    0.5300
     24 O24        -6.6802   -1.2778   52.2180 O.2     1  ZINC000347662449   -0.4900
     25 H25        -4.0432    1.6568   51.6272 H       1  ZINC000347662449    0.1000
     26 H26        -3.6238    3.1179   50.5371 H       1  ZINC000347662449    0.1000
     27 H27        -5.4978    2.6150   49.1418 H       1  ZINC000347662449    0.1100
     28 H28        -7.0108    0.7995   49.6330 H       1  ZINC000347662449    0.0900
     29 H29        -5.5908   -0.1039   50.2121 H       1  ZINC000347662449    0.0900
     30 H30        -6.0628    2.6975   52.6825 H       1  ZINC000347662449    0.0800
     31 H31        -7.5405    2.8433   51.6849 H       1  ZINC000347662449    0.0900
     32 H32        -7.6177    2.4618   54.4320 H       1  ZINC000347662449    0.1100
     33 H33        -8.9009    1.8499   53.3354 H       1  ZINC000347662449    0.0900
     34 H34        -7.8642    1.3663   58.7338 H       1  ZINC000347662449    0.1800
     35 H35        -9.9202   -0.1964   59.1668 H       1  ZINC000347662449    0.1800
     36 H36        -9.8189   -3.1522   57.8954 H       1  ZINC000347662449    0.1300
     37 H37       -11.6401   -4.7574   57.4895 H       1  ZINC000347662449    0.1300
     38 H38       -14.6569   -4.2850   56.8926 H       1  ZINC000347662449    0.0800
     39 H39       -14.3915   -4.1460   55.1380 H       1  ZINC000347662449    0.0700
     40 H40       -13.5116   -5.3762   56.0765 H       1  ZINC000347662449    0.0700
     41 H41       -14.8505   -1.2784   55.6733 H       1  ZINC000347662449    0.0800
     42 H42       -13.7967   -0.9422   54.2788 H       1  ZINC000347662449    0.0700
     43 H43       -14.4932   -2.5656   54.4970 H       1  ZINC000347662449    0.0800
     44 H44       -11.9358   -0.1953   55.6473 H       1  ZINC000347662449    0.1300
@<TRIPOS>BOND
     1     1     2    2
     2     1    25    1
     3     1    26    1
     4     2     3    1
     5     2    27    1
     6     3     4    1
     7     3    28    1
     8     3    29    1
     9     4    23   am
    10     4     5    1
    11     5     6    1
    12     5    30    1
    13     5    31    1
    14     6     7    1
    15     6    32    1
    16     6    33    1
    17     7     8    1
    18     7     9    1
    19     7    23    1
    20     9    10    1
    21    10    14    1
    22    10    11    2
    23    11    12    1
    24    12    13    2
    25    12    34    1
    26    13    14    1
    27    13    35    1
    28    14    15    1
    29    15    22   ar
    30    15    16   ar
    31    16    17   ar
    32    16    36    1
    33    17    18   ar
    34    17    37    1
    35    18    19    1
    36    18    20   ar
    37    19    38    1
    38    19    39    1
    39    19    40    1
    40    20    21    1
    41    20    22   ar
    42    21    41    1
    43    21    42    1
    44    21    43    1
    45    22    44    1
    46    23    24    2
@<TRIPOS>SUBSTRUCTURE
     1 ZINC000347662449        1 TEMP              0 ****  ****    0 ROOT


##########                                Name:    ZINC000478980774
##########                DOCK_Rotatable_Bonds:                   4
##########                         Heavy_Atoms:                  26
##########                    Molecular_Weight:             401.818
##########                DOCK_Rotatable_Bonds:                   4
##########                       Formal_Charge:          -0.0100001
##########                     HBond_Acceptors:                   9
##########                        HBond_Donors:                   1
##########                         Heavy_Atoms:                  26
##########                          Grid_Score:          -28.160696
##########                     Grid_vdw_energy:          -27.722729
##########                      Grid_es_energy:           -0.437968
##########           Internal_energy_repulsive:            7.770945

@<TRIPOS>MOLECULE
ZINC000478980774
 40 42 1 0 0
SMALL
USER_CHARGES


@<TRIPOS>ATOM
      1 C1         -8.8821    0.4484   56.4618 C.3     1  ZINC000478980774   -0.1400
      2 C2         -9.7461    0.4930   55.2000 C.3     1  ZINC000478980774   -0.4600
      3 H3        -10.4923    1.2815   55.2982 H       1  ZINC000478980774    0.1500
      4 C4         -8.8738    0.7732   54.0035 C.2     1  ZINC000478980774    0.5400
      5 O5         -9.3399    1.3246   53.0289 O.2     1  ZINC000478980774   -0.5000
      6 N6         -7.5756    0.4110   54.0164 N.am    1  ZINC000478980774   -0.6600
      7 C7         -6.7646    0.6715   52.9041 C.ar    1  ZINC000478980774    0.1600
      8 C8         -7.0682    0.1023   51.6751 C.ar    1  ZINC000478980774   -0.1200
      9 C9         -6.2687    0.3580   50.5770 C.ar    1  ZINC000478980774   -0.0600
     10 C10        -5.1626    1.1825   50.6994 C.ar    1  ZINC000478980774    0.0100
     11 O11        -4.2296    1.5855   49.7868 O.3     1  ZINC000478980774   -0.2900
     12 C12        -3.5877    2.7325   50.3745 C.3     1  ZINC000478980774    0.5700
     13 F13        -2.2354    2.7752   50.0183 F       1  ZINC000478980774   -0.1100
     14 F14        -4.2343    3.9106   49.9857 F       1  ZINC000478980774   -0.1500
     15 O15        -3.7311    2.5168   51.7908 O.3     1  ZINC000478980774   -0.2800
     16 C16        -4.8555    1.7556   51.9318 C.ar    1  ZINC000478980774    0.0500
     17 C17        -5.6601    1.5036   53.0298 C.ar    1  ZINC000478980774   -0.0900
     18 S18       -10.5788   -1.1036   54.9804 S.o     1  ZINC000478980774    1.3000
     19 O19        -9.6061   -2.1270   54.8203 O.2     1  ZINC000478980774   -0.7800
     20 C20       -11.4436   -1.3331   56.5585 C.3     1  ZINC000478980774   -0.4300
     21 C21       -12.1961   -2.6386   56.5336 C.ar    1  ZINC000478980774   -0.0600
     22 C22       -13.2963   -2.7866   55.7107 C.ar    1  ZINC000478980774   -0.1100
     23 C23       -13.9869   -3.9842   55.6878 C.ar    1  ZINC000478980774   -0.1100
     24 C24       -13.5775   -5.0340   56.4883 C.ar    1  ZINC000478980774   -0.1100
     25 C25       -12.4770   -4.8871   57.3120 C.ar    1  ZINC000478980774   -0.1100
     26 C26       -11.7821   -3.6912   57.3307 C.ar    1  ZINC000478980774   -0.0300
     27 Cl27      -10.4000   -3.5061   58.3648 Cl      1  ZINC000478980774   -0.0600
     28 H28        -9.5131    0.2457   57.3272 H       1  ZINC000478980774    0.0800
     29 H29        -8.1360   -0.3401   56.3636 H       1  ZINC000478980774    0.0700
     30 H30        -8.3817    1.4076   56.5937 H       1  ZINC000478980774    0.0700
     31 H31        -7.2029   -0.0301   54.7957 H       1  ZINC000478980774    0.4200
     32 H32        -7.9300   -0.5414   51.5770 H       1  ZINC000478980774    0.1500
     33 H33        -6.5068   -0.0863   49.6219 H       1  ZINC000478980774    0.1500
     34 H34        -5.4267    1.9508   53.9847 H       1  ZINC000478980774    0.1600
     35 H35       -10.7180   -1.3474   57.3718 H       1  ZINC000478980774    0.1100
     36 H36       -12.1446   -0.5126   56.7113 H       1  ZINC000478980774    0.1300
     37 H37       -13.6171   -1.9664   55.0855 H       1  ZINC000478980774    0.1400
     38 H38       -14.8467   -4.0994   55.0445 H       1  ZINC000478980774    0.1300
     39 H39       -14.1177   -5.9690   56.4706 H       1  ZINC000478980774    0.1300
     40 H40       -12.1572   -5.7075   57.9374 H       1  ZINC000478980774    0.1300
@<TRIPOS>BOND
     1     1     2    1
     2     1    28    1
     3     1    29    1
     4     1    30    1
     5     2     3    1
     6     2     4    1
     7     2    18    1
     8     4     5    2
     9     4     6   am
    10     6     7    1
    11     6    31    1
    12     7    17   ar
    13     7     8   ar
    14     8     9   ar
    15     8    32    1
    16     9    10   ar
    17     9    33    1
    18    10    16   ar
    19    10    11    1
    20    11    12    1
    21    12    13    1
    22    12    14    1
    23    12    15    1
    24    15    16    1
    25    16    17   ar
    26    17    34    1
    27    18    19    2
    28    18    20    1
    29    20    21    1
    30    20    35    1
    31    20    36    1
    32    21    26   ar
    33    21    22   ar
    34    22    23   ar
    35    22    37    1
    36    23    24   ar
    37    23    38    1
    38    24    25   ar
    39    24    39    1
    40    25    26   ar
    41    25    40    1
    42    26    27    1
@<TRIPOS>SUBSTRUCTURE
     1 ZINC000478980774        1 TEMP              0 ****  ****    0 ROOT


##########                                Name:    ZINC000650955167
##########                DOCK_Rotatable_Bonds:                   9
##########                         Heavy_Atoms:                  26
##########                    Molecular_Weight:             361.484
##########                DOCK_Rotatable_Bonds:                   9
##########                       Formal_Charge:        -7.07805e-07
##########                     HBond_Acceptors:                   6
##########                        HBond_Donors:                   2
##########                         Heavy_Atoms:                  26
##########                          Grid_Score:          -28.158785
##########                     Grid_vdw_energy:          -27.728426
##########                      Grid_es_energy:           -0.430359
##########           Internal_energy_repulsive:           15.820035

@<TRIPOS>MOLECULE
ZINC000650955167
 57 59 1 0 0
SMALL
USER_CHARGES


@<TRIPOS>ATOM
      1 C1        -13.1316   -4.7031   57.0110 C.3     1  ZINC000650955167    0.0200
      2 O2        -13.9713   -3.5468   57.0086 O.3     1  ZINC000650955167   -0.3200
      3 C3        -14.0891   -2.8674   58.1798 C.ar    1  ZINC000650955167    0.1300
      4 C4        -14.6033   -3.5010   59.3015 C.ar    1  ZINC000650955167   -0.2000
      5 C5        -14.7216   -2.8082   60.4912 C.ar    1  ZINC000650955167   -0.0800
      6 C6        -14.3285   -1.4849   60.5639 C.ar    1  ZINC000650955167   -0.1500
      7 C7        -13.8162   -0.8509   59.4468 C.ar    1  ZINC000650955167   -0.0800
      8 C8        -13.6901   -1.5408   58.2568 C.ar    1  ZINC000650955167   -0.1100
      9 C9        -13.1311   -0.8496   57.0399 C.3     1  ZINC000650955167   -0.0800
     10 C10       -11.6103   -1.0146   57.0131 C.3     1  ZINC000650955167    0.1800
     11 H11       -11.3606   -2.0747   56.9683 H       1  ZINC000650955167    0.0900
     12 N12       -11.0341   -0.4279   58.2256 N.am    1  ZINC000650955167   -0.7300
     13 C13       -10.2906   -1.1877   59.0541 C.2     1  ZINC000650955167    0.7400
     14 O14       -10.0968   -2.3597   58.7944 O.2     1  ZINC000650955167   -0.5800
     15 N15        -9.7619   -0.6484   60.1704 N.am    1  ZINC000650955167   -0.6700
     16 C16        -8.9208   -1.1226   61.2798 C.3     1  ZINC000650955167    0.1100
     17 C17        -9.5627   -0.0395   62.1577 C.3     1  ZINC000650955167    0.0300
     18 N18        -8.6231    0.6392   63.0604 N.3     1  ZINC000650955167   -0.5100
     19 C19        -8.0214   -0.3164   64.0147 C.3     1  ZINC000650955167    0.0400
     20 C20        -7.8188    0.4988   65.3162 C.3     1  ZINC000650955167   -0.1600
     21 C21        -9.0825    1.3987   65.3222 C.3     1  ZINC000650955167    0.0800
     22 H22        -9.9365    0.8611   65.7341 H       1  ZINC000650955167    0.0600
     23 O23        -8.8429    2.6013   66.0560 O.3     1  ZINC000650955167   -0.5600
     24 C24        -9.2997    1.7029   63.8249 C.3     1  ZINC000650955167    0.0500
     25 C25        -9.7666    0.6751   60.8117 C.3     1  ZINC000650955167    0.1400
     26 C26       -11.0418   -0.3043   55.7830 C.3     1  ZINC000650955167   -0.1100
     27 C27        -9.5278   -0.1479   55.9388 C.3     1  ZINC000650955167   -0.1400
     28 C28       -11.3431   -1.1316   54.5317 C.3     1  ZINC000650955167   -0.1500
     29 H29       -13.1257   -5.1499   56.0168 H       1  ZINC000650955167    0.1000
     30 H30       -12.1170   -4.4148   57.2858 H       1  ZINC000650955167    0.0600
     31 H31       -13.5117   -5.4266   57.7323 H       1  ZINC000650955167    0.0600
     32 H32       -14.9111   -4.5346   59.2451 H       1  ZINC000650955167    0.1300
     33 H33       -15.1218   -3.3010   61.3649 H       1  ZINC000650955167    0.1200
     34 H34       -14.4222   -0.9450   61.4946 H       1  ZINC000650955167    0.1200
     35 H35       -13.5101    0.1831   59.5060 H       1  ZINC000650955167    0.1300
     36 H36       -13.5605   -1.2924   56.1412 H       1  ZINC000650955167    0.0900
     37 H37       -13.3809    0.2107   57.0775 H       1  ZINC000650955167    0.0800
     38 H38       -11.1877    0.5073   58.4321 H       1  ZINC000650955167    0.4000
     39 H39        -9.1567   -2.1373   61.6002 H       1  ZINC000650955167    0.0700
     40 H40        -7.8547   -0.9701   61.1121 H       1  ZINC000650955167    0.0900
     41 H41       -10.4841   -0.3509   62.6498 H       1  ZINC000650955167    0.0900
     42 H42        -8.6980   -1.1525   64.1920 H       1  ZINC000650955167    0.0500
     43 H43        -7.0633   -0.6755   63.6388 H       1  ZINC000650955167    0.0900
     44 H44        -7.8011   -0.1553   66.1879 H       1  ZINC000650955167    0.0800
     45 H45        -6.9113    1.1003   65.2628 H       1  ZINC000650955167    0.0900
     46 H46        -8.6054    2.4562   66.9821 H       1  ZINC000650955167    0.3800
     47 H47        -8.8658    2.6714   63.5765 H       1  ZINC000650955167    0.0900
     48 H48       -10.3658    1.7024   63.5973 H       1  ZINC000650955167    0.0700
     49 H49        -8.9251    1.3044   60.5224 H       1  ZINC000650955167    0.0900
     50 H50       -10.7245    1.1895   60.7340 H       1  ZINC000650955167    0.0800
     51 H51       -11.5008    0.6797   55.6872 H       1  ZINC000650955167    0.0700
     52 H52        -9.0688   -1.1319   56.0346 H       1  ZINC000650955167    0.0600
     53 H53        -9.1228    0.3581   55.0624 H       1  ZINC000650955167    0.0400
     54 H54        -9.3132    0.4414   56.8302 H       1  ZINC000650955167    0.0500
     55 H55       -12.4216   -1.2431   54.4208 H       1  ZINC000650955167    0.0600
     56 H56       -10.9380   -0.6256   53.6554 H       1  ZINC000650955167    0.0600
     57 H57       -10.8841   -2.1157   54.6277 H       1  ZINC000650955167    0.0600
@<TRIPOS>BOND
     1     1     2    1
     2     1    29    1
     3     1    30    1
     4     1    31    1
     5     2     3    1
     6     3     8   ar
     7     3     4   ar
     8     4     5   ar
     9     4    32    1
    10     5     6   ar
    11     5    33    1
    12     6     7   ar
    13     6    34    1
    14     7     8   ar
    15     7    35    1
    16     8     9    1
    17     9    10    1
    18     9    36    1
    19     9    37    1
    20    10    11    1
    21    10    12    1
    22    10    26    1
    23    12    13   am
    24    12    38    1
    25    13    14    2
    26    13    15   am
    27    15    25    1
    28    15    16    1
    29    16    17    1
    30    16    39    1
    31    16    40    1
    32    17    18    1
    33    17    25    1
    34    17    41    1
    35    18    24    1
    36    18    19    1
    37    19    20    1
    38    19    42    1
    39    19    43    1
    40    20    21    1
    41    20    44    1
    42    20    45    1
    43    21    22    1
    44    21    23    1
    45    21    24    1
    46    23    46    1
    47    24    47    1
    48    24    48    1
    49    25    49    1
    50    25    50    1
    51    26    27    1
    52    26    28    1
    53    26    51    1
    54    27    52    1
    55    27    53    1
    56    27    54    1
    57    28    55    1
    58    28    56    1
    59    28    57    1
@<TRIPOS>SUBSTRUCTURE
     1 ZINC000650955167        1 TEMP              0 ****  ****    0 ROOT


##########                                Name:    ZINC000477669194
##########                DOCK_Rotatable_Bonds:                   6
##########                         Heavy_Atoms:                  26
##########                    Molecular_Weight:             387.483
##########                DOCK_Rotatable_Bonds:                   6
##########                       Formal_Charge:         4.47035e-07
##########                     HBond_Acceptors:                   8
##########                        HBond_Donors:                   2
##########                         Heavy_Atoms:                  26
##########                          Grid_Score:          -28.115099
##########                     Grid_vdw_energy:          -27.482300
##########                      Grid_es_energy:           -0.632800
##########           Internal_energy_repulsive:           13.507363

@<TRIPOS>MOLECULE
ZINC000477669194
 43 45 1 0 0
SMALL
USER_CHARGES


@<TRIPOS>ATOM
      1 C1        -13.2685   -4.3019   56.7779 C.3     1  ZINC000477669194   -0.0800
      2 C2        -12.2625   -3.6576   57.6966 C.2     1  ZINC000477669194    0.0500
      3 N3        -12.4834   -2.6043   58.4044 N.2     1  ZINC000477669194   -0.4900
      4 C4        -11.4885   -2.1661   59.1623 C.2     1  ZINC000477669194    0.1200
      5 C5        -11.6011   -0.9671   60.0278 C.ar    1  ZINC000477669194   -0.0600
      6 C6        -12.2210   -1.0577   61.2713 C.ar    1  ZINC000477669194   -0.0800
      7 C7        -12.3234    0.0615   62.0736 C.ar    1  ZINC000477669194   -0.1400
      8 C8        -11.8122    1.2743   61.6472 C.ar    1  ZINC000477669194   -0.0900
      9 C9        -11.1950    1.3768   60.4147 C.ar    1  ZINC000477669194   -0.1300
     10 C10       -11.0794    0.2598   59.6010 C.ar    1  ZINC000477669194    0.1800
     11 N11       -10.4553    0.3614   58.3546 N.am    1  ZINC000477669194   -0.6500
     12 C12        -9.1125    0.2891   58.2655 C.2     1  ZINC000477669194    0.5600
     13 O13        -8.4438    0.1355   59.2696 O.2     1  ZINC000477669194   -0.5200
     14 C14        -8.4537    0.3963   56.9502 C.ar    1  ZINC000477669194   -0.1500
     15 C15        -7.3982    1.2945   56.7667 C.ar    1  ZINC000477669194   -0.0600
     16 C16        -6.7853    1.3919   55.5384 C.ar    1  ZINC000477669194   -0.1400
     17 C17        -7.2152    0.5971   54.4793 C.ar    1  ZINC000477669194    0.1700
     18 N18        -6.5938    0.6979   53.2394 N.am    1  ZINC000477669194   -1.0600
     19 S19        -7.2969    0.0177   51.9033 S.o2    1  ZINC000477669194    2.6100
     20 C20        -6.1522    0.3953   50.5477 C.3     1  ZINC000477669194   -0.6700
     21 O21        -7.2997   -1.3761   52.1800 O.2     1  ZINC000477669194   -0.9400
     22 O22        -8.5130    0.7353   51.7436 O.2     1  ZINC000477669194   -0.9500
     23 C23        -8.2657   -0.2986   54.6591 C.ar    1  ZINC000477669194   -0.1600
     24 C24        -8.8795   -0.4042   55.8861 C.ar    1  ZINC000477669194   -0.0300
     25 C25       -10.3650   -2.9070   59.0775 C.2     1  ZINC000477669194   -0.2600
     26 S26       -10.6710   -4.2264   57.9509 S.3     1  ZINC000477669194    0.1500
     27 H27       -12.8222   -5.1780   56.3076 H       1  ZINC000477669194    0.0800
     28 H28       -14.1439   -4.6042   57.3526 H       1  ZINC000477669194    0.0900
     29 H29       -13.5670   -3.5892   56.0090 H       1  ZINC000477669194    0.0900
     30 H30       -12.6217   -2.0024   61.6079 H       1  ZINC000477669194    0.1300
     31 H31       -12.8048   -0.0101   63.0377 H       1  ZINC000477669194    0.1300
     32 H32       -11.8960    2.1452   62.2802 H       1  ZINC000477669194    0.1300
     33 H33       -10.7985    2.3264   60.0870 H       1  ZINC000477669194    0.1500
     34 H34       -10.9886    0.4840   57.5537 H       1  ZINC000477669194    0.4200
     35 H35        -7.0645    1.9116   57.5877 H       1  ZINC000477669194    0.1300
     36 H36        -5.9702    2.0859   55.3958 H       1  ZINC000477669194    0.1400
     37 H37        -5.7486    1.1666   53.1572 H       1  ZINC000477669194    0.4300
     38 H38        -5.2052   -0.1168   50.7185 H       1  ZINC000477669194    0.1300
     39 H39        -6.5823    0.0586   49.6044 H       1  ZINC000477669194    0.1400
     40 H40        -5.9811    1.4710   50.5056 H       1  ZINC000477669194    0.1300
     41 H41        -8.5967   -0.9142   53.8356 H       1  ZINC000477669194    0.1700
     42 H42        -9.6942   -1.0996   56.0250 H       1  ZINC000477669194    0.1500
     43 H43        -9.4425   -2.7260   59.6090 H       1  ZINC000477669194    0.1800
@<TRIPOS>BOND
     1     1     2    1
     2     1    27    1
     3     1    28    1
     4     1    29    1
     5     2    26    1
     6     2     3    2
     7     3     4    1
     8     4     5    1
     9     4    25    2
    10     5    10   ar
    11     5     6   ar
    12     6     7   ar
    13     6    30    1
    14     7     8   ar
    15     7    31    1
    16     8     9   ar
    17     8    32    1
    18     9    10   ar
    19     9    33    1
    20    10    11    1
    21    11    12   am
    22    11    34    1
    23    12    13    2
    24    12    14    1
    25    14    24   ar
    26    14    15   ar
    27    15    16   ar
    28    15    35    1
    29    16    17   ar
    30    16    36    1
    31    17    18    1
    32    17    23   ar
    33    18    19   am
    34    18    37    1
    35    19    20    1
    36    19    21    2
    37    19    22    2
    38    20    38    1
    39    20    39    1
    40    20    40    1
    41    23    24   ar
    42    23    41    1
    43    24    42    1
    44    25    26    1
    45    25    43    1
@<TRIPOS>SUBSTRUCTURE
     1 ZINC000477669194        1 TEMP              0 ****  ****    0 ROOT


##########                                Name:    ZINC000463474628
##########                DOCK_Rotatable_Bonds:                   5
##########                         Heavy_Atoms:                  25
##########                    Molecular_Weight:              407.35
##########                DOCK_Rotatable_Bonds:                   5
##########                       Formal_Charge:           0.0200004
##########                     HBond_Acceptors:                   4
##########                        HBond_Donors:                   0
##########                         Heavy_Atoms:                  25
##########                          Grid_Score:          -28.099312
##########                     Grid_vdw_energy:          -27.125452
##########                      Grid_es_energy:           -0.973861
##########           Internal_energy_repulsive:           35.083195

@<TRIPOS>MOLECULE
ZINC000463474628
 52 54 1 0 0
SMALL
USER_CHARGES


@<TRIPOS>ATOM
      1 C1         -7.2956    1.8832   56.4915 C.3     1  ZINC000463474628   -0.1400
      2 C2         -8.6556    1.1834   56.4546 C.3     1  ZINC000463474628   -0.1300
      3 C3         -8.6142    0.0414   55.4372 C.3     1  ZINC000463474628    0.1400
      4 H4         -7.9663   -0.7559   55.8014 H       1  ZINC000463474628    0.0800
      5 C5         -8.0924    0.5644   54.0824 C.3     1  ZINC000463474628   -0.1300
      6 C6         -8.9650   -0.2030   53.0543 C.3     1  ZINC000463474628   -0.1300
      7 C7        -10.3240   -0.2776   53.7941 C.3     1  ZINC000463474628    0.0900
      8 N8         -9.9711   -0.4793   55.2145 N.am    1  ZINC000463474628   -0.6100
      9 C9        -10.7622   -1.0441   56.1479 C.2     1  ZINC000463474628    0.5300
     10 O10       -11.8693   -1.4376   55.8471 O.2     1  ZINC000463474628   -0.5100
     11 C11       -10.2712   -1.1868   57.5656 C.3     1  ZINC000463474628   -0.1200
     12 H12        -9.1922   -1.0346   57.5940 H       1  ZINC000463474628    0.1000
     13 C13       -10.6030   -2.5885   58.0824 C.3     1  ZINC000463474628   -0.1000
     14 C14       -10.0758   -2.7456   59.5105 C.3     1  ZINC000463474628   -0.1300
     15 C15       -10.7614   -1.7203   60.4193 C.3     1  ZINC000463474628    0.0900
     16 N16       -10.5693   -0.3799   59.8491 N.am    1  ZINC000463474628   -0.6000
     17 C17       -10.0456    0.6143   60.5933 C.2     1  ZINC000463474628    0.5700
     18 O18        -9.8916    1.7189   60.1099 O.2     1  ZINC000463474628   -0.5200
     19 C19        -9.6584    0.3614   61.9971 C.ar    1  ZINC000463474628   -0.1200
     20 C20        -8.4171   -0.2055   62.2904 C.ar    1  ZINC000463474628   -0.0800
     21 C21        -8.0614   -0.4393   63.6023 C.ar    1  ZINC000463474628   -0.1000
     22 C22        -8.9330   -0.1128   64.6275 C.ar    1  ZINC000463474628   -0.0700
     23 Br23       -8.4374   -0.4359   66.4235 Br      1  ZINC000463474628   -0.0400
     24 C24       -10.1661    0.4499   64.3428 C.ar    1  ZINC000463474628   -0.0900
     25 C25       -10.5306    0.6937   63.0356 C.ar    1  ZINC000463474628   -0.0300
     26 C26       -11.8727    1.3059   62.7275 C.3     1  ZINC000463474628   -0.1300
     27 C27       -10.9583   -0.1434   58.4521 C.3     1  ZINC000463474628    0.1200
     28 H28        -6.6210    1.3321   57.1465 H       1  ZINC000463474628    0.0700
     29 H29        -6.8774    1.9178   55.4855 H       1  ZINC000463474628    0.0600
     30 H30        -7.4194    2.8984   56.8686 H       1  ZINC000463474628    0.0300
     31 H31        -8.8846    0.7823   57.4420 H       1  ZINC000463474628    0.0600
     32 H32        -9.4250    1.8994   56.1660 H       1  ZINC000463474628    0.0700
     33 H33        -8.2512    1.6393   53.9968 H       1  ZINC000463474628    0.0800
     34 H34        -7.0384    0.3177   53.9539 H       1  ZINC000463474628    0.0800
     35 H35        -9.0568    0.3577   52.1240 H       1  ZINC000463474628    0.0900
     36 H36        -8.5654   -1.2001   52.8697 H       1  ZINC000463474628    0.0800
     37 H37       -10.8763    0.6535   53.6677 H       1  ZINC000463474628    0.0700
     38 H38       -10.9100   -1.1201   53.4269 H       1  ZINC000463474628    0.0800
     39 H39       -11.6836   -2.7314   58.0765 H       1  ZINC000463474628    0.0800
     40 H40       -10.1350   -3.3332   57.4387 H       1  ZINC000463474628    0.0700
     41 H41       -10.2918   -3.7518   59.8696 H       1  ZINC000463474628    0.0800
     42 H42        -8.9988   -2.5784   59.5211 H       1  ZINC000463474628    0.0700
     43 H43       -11.8268   -1.9418   60.4814 H       1  ZINC000463474628    0.0800
     44 H44       -10.3190   -1.7608   61.4147 H       1  ZINC000463474628    0.1000
     45 H45        -7.7365   -0.4610   61.4915 H       1  ZINC000463474628    0.1400
     46 H46        -7.1014   -0.8781   63.8305 H       1  ZINC000463474628    0.1400
     47 H47       -10.8419    0.7021   65.1467 H       1  ZINC000463474628    0.1400
     48 H48       -11.7637    2.3851   62.6196 H       1  ZINC000463474628    0.0700
     49 H49       -12.2597    0.8852   61.7994 H       1  ZINC000463474628    0.0900
     50 H50       -12.5657    1.0904   63.5409 H       1  ZINC000463474628    0.0700
     51 H51       -10.6462    0.8564   58.1501 H       1  ZINC000463474628    0.1000
     52 H52       -12.0399   -0.2363   58.3533 H       1  ZINC000463474628    0.0800
@<TRIPOS>BOND
     1     1     2    1
     2     1    28    1
     3     1    29    1
     4     1    30    1
     5     2     3    1
     6     2    31    1
     7     2    32    1
     8     3     4    1
     9     3     8    1
    10     3     5    1
    11     5     6    1
    12     5    33    1
    13     5    34    1
    14     6     7    1
    15     6    35    1
    16     6    36    1
    17     7     8    1
    18     7    37    1
    19     7    38    1
    20     8     9   am
    21     9    10    2
    22     9    11    1
    23    11    12    1
    24    11    27    1
    25    11    13    1
    26    13    14    1
    27    13    39    1
    28    13    40    1
    29    14    15    1
    30    14    41    1
    31    14    42    1
    32    15    16    1
    33    15    43    1
    34    15    44    1
    35    16    17   am
    36    16    27    1
    37    17    18    2
    38    17    19    1
    39    19    25   ar
    40    19    20   ar
    41    20    21   ar
    42    20    45    1
    43    21    22   ar
    44    21    46    1
    45    22    23    1
    46    22    24   ar
    47    24    25   ar
    48    24    47    1
    49    25    26    1
    50    26    48    1
    51    26    49    1
    52    26    50    1
    53    27    51    1
    54    27    52    1
@<TRIPOS>SUBSTRUCTURE
     1 ZINC000463474628        1 TEMP              0 ****  ****    0 ROOT


##########                                Name:    ZINC000742270208
##########                DOCK_Rotatable_Bonds:                   5
##########                         Heavy_Atoms:                  25
##########                    Molecular_Weight:             376.328
##########                DOCK_Rotatable_Bonds:                   5
##########                       Formal_Charge:                0.02
##########                     HBond_Acceptors:                   9
##########                        HBond_Donors:                   0
##########                         Heavy_Atoms:                  25
##########                          Grid_Score:          -28.063509
##########                     Grid_vdw_energy:          -27.296507
##########                      Grid_es_energy:           -0.767002
##########           Internal_energy_repulsive:           12.227090

@<TRIPOS>MOLECULE
ZINC000742270208
 37 38 1 0 0
SMALL
USER_CHARGES


@<TRIPOS>ATOM
      1 C1         -8.0938    1.6245   67.5240 C.3     1  ZINC000742270208   -0.1400
      2 C2         -8.2571    0.6468   66.3584 C.3     1  ZINC000742270208   -0.1400
      3 C3         -8.5873   -0.7446   66.9022 C.3     1  ZINC000742270208   -0.1400
      4 C4         -9.3754    1.1148   65.4633 C.2     1  ZINC000742270208    0.4000
      5 O5        -10.0408    2.0785   65.7777 O.2     1  ZINC000742270208   -0.4300
      6 C6         -9.6600    0.4022   64.2075 C.ar    1  ZINC000742270208   -0.1000
      7 C7        -10.9601    0.3769   63.6928 C.ar    1  ZINC000742270208   -0.0900
      8 C8        -11.2187   -0.2930   62.5156 C.ar    1  ZINC000742270208   -0.0200
      9 C9        -10.1958   -0.9394   61.8439 C.ar    1  ZINC000742270208   -0.6800
     10 S10       -10.5365   -1.7926   60.3404 S.o2    1  ZINC000742270208    2.6600
     11 O11       -11.2438   -0.8797   59.5124 O.2     1  ZINC000742270208   -0.9300
     12 O12        -9.3213   -2.4163   59.9487 O.2     1  ZINC000742270208   -0.9000
     13 O13       -11.5092   -2.9159   60.6702 O.3     1  ZINC000742270208   -0.6400
     14 C14       -12.4265   -3.1574   59.6955 C.ar    1  ZINC000742270208    0.0500
     15 C15       -13.7661   -2.8674   59.9145 C.ar    1  ZINC000742270208    0.0900
     16 F16       -14.1601   -2.3449   61.0964 F       1  ZINC000742270208   -0.0900
     17 C17       -14.6987   -3.1138   58.9201 C.ar    1  ZINC000742270208    0.1100
     18 F18       -16.0027   -2.8317   59.1329 F       1  ZINC000742270208   -0.1000
     19 C19       -14.2954   -3.6484   57.7085 C.ar    1  ZINC000742270208   -0.1100
     20 C20       -12.9597   -3.9386   57.4883 C.ar    1  ZINC000742270208    0.1200
     21 F21       -12.5685   -4.4603   56.3051 F       1  ZINC000742270208   -0.1000
     22 C22       -12.0233   -3.6889   58.4782 C.ar    1  ZINC000742270208    0.1200
     23 F23       -10.7200   -3.9719   58.2626 F       1  ZINC000742270208   -0.0900
     24 C24        -8.9065   -0.9189   62.3467 C.ar    1  ZINC000742270208   -0.0300
     25 C25        -8.6306   -0.2481   63.5196 C.ar    1  ZINC000742270208   -0.0800
     26 H26        -7.2849    1.2860   68.1715 H       1  ZINC000742270208    0.0700
     27 H27        -7.8585    2.6157   67.1366 H       1  ZINC000742270208    0.0600
     28 H28        -9.0216    1.6680   68.0944 H       1  ZINC000742270208    0.0600
     29 H29        -7.3292    0.6033   65.7880 H       1  ZINC000742270208    0.1000
     30 H30        -9.5151   -0.7010   67.4725 H       1  ZINC000742270208    0.0700
     31 H31        -8.7037   -1.4410   66.0718 H       1  ZINC000742270208    0.0600
     32 H32        -7.7784   -1.0831   67.5497 H       1  ZINC000742270208    0.0700
     33 H33       -11.7596    0.8802   64.2162 H       1  ZINC000742270208    0.1500
     34 H34       -12.2222   -0.3136   62.1169 H       1  ZINC000742270208    0.1500
     35 H35       -15.0236   -3.8395   56.9342 H       1  ZINC000742270208    0.1900
     36 H36        -8.1136   -1.4257   61.8169 H       1  ZINC000742270208    0.1500
     37 H37        -7.6240   -0.2330   63.9107 H       1  ZINC000742270208    0.1500
@<TRIPOS>BOND
     1     1     2    1
     2     1    26    1
     3     1    27    1
     4     1    28    1
     5     2     3    1
     6     2     4    1
     7     2    29    1
     8     3    30    1
     9     3    31    1
    10     3    32    1
    11     4     5    2
    12     4     6    1
    13     6    25   ar
    14     6     7   ar
    15     7     8   ar
    16     7    33    1
    17     8     9   ar
    18     8    34    1
    19     9    10    1
    20     9    24   ar
    21    10    11    2
    22    10    12    2
    23    10    13    1
    24    13    14    1
    25    14    22   ar
    26    14    15   ar
    27    15    16    1
    28    15    17   ar
    29    17    18    1
    30    17    19   ar
    31    19    20   ar
    32    19    35    1
    33    20    21    1
    34    20    22   ar
    35    22    23    1
    36    24    25   ar
    37    24    36    1
    38    25    37    1
@<TRIPOS>SUBSTRUCTURE
     1 ZINC000742270208        1 TEMP              0 ****  ****    0 ROOT


##########                                Name:    ZINC001173835973
##########                DOCK_Rotatable_Bonds:                   4
##########                         Heavy_Atoms:                  26
##########                    Molecular_Weight:             343.388
##########                DOCK_Rotatable_Bonds:                   4
##########                       Formal_Charge:           -0.010001
##########                     HBond_Acceptors:                   6
##########                        HBond_Donors:                   4
##########                         Heavy_Atoms:                  26
##########                          Grid_Score:          -27.992378
##########                     Grid_vdw_energy:          -26.582796
##########                      Grid_es_energy:           -1.409581
##########           Internal_energy_repulsive:            8.150636

@<TRIPOS>MOLECULE
ZINC001173835973
 43 46 1 0 0
SMALL
USER_CHARGES


@<TRIPOS>ATOM
      1 C1         -8.7686   -1.7488   60.1259 C.3     1  ZINC001173835973   -0.1700
      2 C2        -10.0164   -2.5448   59.8424 C.2     1  ZINC001173835973    0.5100
      3 O3        -10.7768   -2.8226   60.7456 O.2     1  ZINC001173835973   -0.5200
      4 N4        -10.2876   -2.9480   58.5853 N.am    1  ZINC001173835973   -0.6800
      5 C5        -11.4461   -3.6871   58.3221 C.ar    1  ZINC001173835973    0.1800
      6 C6        -11.3530   -4.9334   57.7158 C.ar    1  ZINC001173835973   -0.1900
      7 C7        -12.4966   -5.6644   57.4554 C.ar    1  ZINC001173835973   -0.0600
      8 C8        -13.7357   -5.1591   57.7972 C.ar    1  ZINC001173835973   -0.1900
      9 C9        -13.8360   -3.9124   58.4042 C.ar    1  ZINC001173835973    0.2200
     10 N10       -15.0889   -3.4019   58.7495 N.pl3   1  ZINC001173835973   -0.6900
     11 C11       -15.1838   -2.1912   59.4456 C.ar    1  ZINC001173835973    0.0400
     12 C12       -15.0606   -2.1802   60.8038 C.ar    1  ZINC001173835973    0.2400
     13 N13       -14.8405   -3.3794   61.4908 N.pl3   1  ZINC001173835973   -0.8600
     14 C14       -15.1562   -0.9278   61.5459 C.ar    1  ZINC001173835973   -0.1100
     15 C15       -15.0297   -0.9100   62.9444 C.ar    1  ZINC001173835973   -0.0600
     16 C16       -15.1275    0.2936   63.5887 C.ar    1  ZINC001173835973   -0.1700
     17 C17       -15.3467    1.4539   62.8558 C.ar    1  ZINC001173835973    0.1200
     18 N18       -15.4639    1.4287   61.5476 N.ar    1  ZINC001173835973   -0.4400
     19 C19       -15.3779    0.2894   60.8647 C.ar    1  ZINC001173835973    0.1900
     20 C20       -15.5104    0.2776   59.4031 C.ar    1  ZINC001173835973    0.1300
     21 N21       -15.7197    1.4058   58.7285 N.ar    1  ZINC001173835973   -0.4400
     22 C22       -15.8401    1.4098   57.4204 C.ar    1  ZINC001173835973    0.1000
     23 C23       -15.7550    0.2377   56.6789 C.ar    1  ZINC001173835973   -0.1500
     24 C24       -15.5408   -0.9557   57.3143 C.ar    1  ZINC001173835973   -0.0700
     25 C25       -15.4076   -0.9500   58.7122 C.ar    1  ZINC001173835973   -0.0400
     26 C26       -12.6888   -3.1783   58.6717 C.ar    1  ZINC001173835973   -0.1900
     27 H27        -8.7204   -1.5153   61.1895 H       1  ZINC001173835973    0.1000
     28 H28        -7.8930   -2.3325   59.8420 H       1  ZINC001173835973    0.0900
     29 H29        -8.7901   -0.8229   59.5512 H       1  ZINC001173835973    0.0900
     30 H30        -9.6796   -2.7258   57.8629 H       1  ZINC001173835973    0.4100
     31 H31       -10.3856   -5.3316   57.4473 H       1  ZINC001173835973    0.1200
     32 H32       -12.4212   -6.6329   56.9833 H       1  ZINC001173835973    0.1200
     33 H33       -14.6275   -5.7328   57.5923 H       1  ZINC001173835973    0.1200
     34 H34       -15.8937   -3.8861   58.5069 H       1  ZINC001173835973    0.4000
     35 H35       -14.6954   -4.2016   60.9971 H       1  ZINC001173835973    0.4100
     36 H36       -14.8329   -3.3882   62.4608 H       1  ZINC001173835973    0.4000
     37 H37       -14.8600   -1.8223   63.4971 H       1  ZINC001173835973    0.1400
     38 H38       -15.0352    0.3414   64.6637 H       1  ZINC001173835973    0.1400
     39 H39       -15.4227    2.3984   63.3739 H       1  ZINC001173835973    0.1700
     40 H40       -16.0097    2.3460   56.9093 H       1  ZINC001173835973    0.1600
     41 H41       -15.8578    0.2680   55.6042 H       1  ZINC001173835973    0.1400
     42 H42       -15.4721   -1.8769   56.7548 H       1  ZINC001173835973    0.1400
     43 H43       -12.7637   -2.2097   59.1435 H       1  ZINC001173835973    0.1400
@<TRIPOS>BOND
     1     1     2    1
     2     1    27    1
     3     1    28    1
     4     1    29    1
     5     2     3    2
     6     2     4   am
     7     4     5    1
     8     4    30    1
     9     5    26   ar
    10     5     6   ar
    11     6     7   ar
    12     6    31    1
    13     7     8   ar
    14     7    32    1
    15     8     9   ar
    16     8    33    1
    17     9    10    1
    18     9    26   ar
    19    10    11    1
    20    10    34    1
    21    11    25   ar
    22    11    12   ar
    23    12    13    1
    24    12    14   ar
    25    13    35    1
    26    13    36    1
    27    14    19   ar
    28    14    15   ar
    29    15    16   ar
    30    15    37    1
    31    16    17   ar
    32    16    38    1
    33    17    18   ar
    34    17    39    1
    35    18    19   ar
    36    19    20   ar
    37    20    25   ar
    38    20    21   ar
    39    21    22   ar
    40    22    23   ar
    41    22    40    1
    42    23    24   ar
    43    23    41    1
    44    24    25   ar
    45    24    42    1
    46    26    43    1
@<TRIPOS>SUBSTRUCTURE
     1 ZINC001173835973        1 TEMP              0 ****  ****    0 ROOT


##########                                Name:    ZINC000793092912
##########                DOCK_Rotatable_Bonds:                   4
##########                         Heavy_Atoms:                  26
##########                    Molecular_Weight:               407.2
##########                DOCK_Rotatable_Bonds:                   4
##########                       Formal_Charge:         2.90573e-07
##########                     HBond_Acceptors:                  10
##########                        HBond_Donors:                   1
##########                         Heavy_Atoms:                  26
##########                          Grid_Score:          -27.986197
##########                     Grid_vdw_energy:          -29.054909
##########                      Grid_es_energy:            1.068712
##########           Internal_energy_repulsive:          191.775772

@<TRIPOS>MOLECULE
ZINC000793092912
 40 43 1 0 0
SMALL
USER_CHARGES


@<TRIPOS>ATOM
      1 C1          1.7244    0.6516   43.9290 C.3     1  ZINC000793092912   -0.1300
      2 C2          0.7771    0.6037   45.1295 C.3     1  ZINC000793092912   -0.0800
      3 C3          1.4237    0.2132   46.4496 C.3     1  ZINC000793092912   -0.1100
      4 C4          1.0978    1.1879   47.5656 C.3     1  ZINC000793092912    0.1100
      5 N5         -0.2934    1.6066   47.5334 N.am    1  ZINC000793092912   -0.5700
      6 C6         -1.0513    1.4274   48.6333 C.2     1  ZINC000793092912    0.5100
      7 O7         -0.5694    0.9242   49.6270 O.2     1  ZINC000793092912   -0.5100
      8 C8         -2.4842    1.8479   48.6294 C.2     1  ZINC000793092912    0.5100
      9 O9         -2.9981    2.2425   47.6029 O.2     1  ZINC000793092912   -0.4900
     10 N10        -3.2068    1.7893   49.7655 N.am    1  ZINC000793092912   -0.6400
     11 C11        -4.5488    2.1832   49.7618 C.ar    1  ZINC000793092912    0.1600
     12 C12        -5.5527    1.2301   49.8732 C.ar    1  ZINC000793092912   -0.1200
     13 C13        -6.8790    1.6178   49.8697 C.ar    1  ZINC000793092912   -0.0600
     14 C14        -7.2113    2.9578   49.7543 C.ar    1  ZINC000793092912    0.0200
     15 O15        -8.4217    3.5898   49.7245 O.3     1  ZINC000793092912   -0.2800
     16 C16        -8.1397    4.9737   50.0047 C.3     1  ZINC000793092912    0.5700
     17 F17        -9.0125    5.8064   49.2962 F       1  ZINC000793092912   -0.1100
     18 F18        -8.2290    5.2251   51.3781 F       1  ZINC000793092912   -0.1500
     19 O19        -6.7874    5.1479   49.5424 O.3     1  ZINC000793092912   -0.2800
     20 C20        -6.2063    3.9167   49.6422 C.ar    1  ZINC000793092912    0.0500
     21 C21        -4.8778    3.5284   49.6522 C.ar    1  ZINC000793092912   -0.0900
     22 C22        -0.8973    2.2128   46.3564 C.3     1  ZINC000793092912    0.1100
     23 C23        -0.4386    1.5145   45.0849 C.3     1  ZINC000793092912   -0.1200
     24 H24        -0.5266    2.1163   44.1803 H       1  ZINC000793092912    0.1400
     25 C25        -0.6239    0.0180   44.8842 C.3     1  ZINC000793092912    0.0000
     26 Cl26       -1.0260   -0.5571   43.2234 Cl      1  ZINC000793092912   -0.0800
     27 Cl27       -1.3659   -0.9186   46.2345 Cl      1  ZINC000793092912   -0.0900
     28 H28         2.1189    1.6617   43.8175 H       1  ZINC000793092912    0.0800
     29 H29         2.5481   -0.0445   44.0882 H       1  ZINC000793092912    0.0700
     30 H30         1.1815    0.3718   43.0264 H       1  ZINC000793092912    0.0700
     31 H31         1.0734   -0.7789   46.7342 H       1  ZINC000793092912    0.0900
     32 H32         2.5050    0.1785   46.3162 H       1  ZINC000793092912    0.1000
     33 H33         1.3022    0.7107   48.5239 H       1  ZINC000793092912    0.1100
     34 H34         1.7348    2.0668   47.4659 H       1  ZINC000793092912    0.0800
     35 H35        -2.7962    1.4740   50.5858 H       1  ZINC000793092912    0.4300
     36 H36        -5.2965    0.1847   49.9625 H       1  ZINC000793092912    0.1500
     37 H37        -7.6580    0.8749   49.9566 H       1  ZINC000793092912    0.1500
     38 H38        -4.0974    4.2705   49.5711 H       1  ZINC000793092912    0.1600
     39 H39        -1.9815    2.1233   46.4253 H       1  ZINC000793092912    0.1400
     40 H40        -0.6289    3.2686   46.3211 H       1  ZINC000793092912    0.1000
@<TRIPOS>BOND
     1     1     2    1
     2     1    28    1
     3     1    29    1
     4     1    30    1
     5     2    23    1
     6     2    25    1
     7     2     3    1
     8     3     4    1
     9     3    31    1
    10     3    32    1
    11     4     5    1
    12     4    33    1
    13     4    34    1
    14     5     6   am
    15     5    22    1
    16     6     7    2
    17     6     8    1
    18     8     9    2
    19     8    10   am
    20    10    11    1
    21    10    35    1
    22    11    21   ar
    23    11    12   ar
    24    12    13   ar
    25    12    36    1
    26    13    14   ar
    27    13    37    1
    28    14    20   ar
    29    14    15    1
    30    15    16    1
    31    16    17    1
    32    16    18    1
    33    16    19    1
    34    19    20    1
    35    20    21   ar
    36    21    38    1
    37    22    23    1
    38    22    39    1
    39    22    40    1
    40    23    24    1
    41    23    25    1
    42    25    26    1
    43    25    27    1
@<TRIPOS>SUBSTRUCTURE
     1 ZINC000793092912        1 TEMP              0 ****  ****    0 ROOT


##########                                Name:    ZINC000581017854
##########                DOCK_Rotatable_Bonds:                   6
##########                         Heavy_Atoms:                  24
##########                    Molecular_Weight:             330.334
##########                DOCK_Rotatable_Bonds:                   6
##########                       Formal_Charge:           0.0099998
##########                     HBond_Acceptors:                   6
##########                        HBond_Donors:                   2
##########                         Heavy_Atoms:                  24
##########                          Grid_Score:          -27.964451
##########                     Grid_vdw_energy:          -26.257847
##########                      Grid_es_energy:           -1.706604
##########           Internal_energy_repulsive:            9.751242

@<TRIPOS>MOLECULE
ZINC000581017854
 40 42 1 0 0
SMALL
USER_CHARGES


@<TRIPOS>ATOM
      1 C1         -0.8785    1.3800   50.2430 C.3     1  ZINC000581017854   -0.1600
      2 C2         -1.7433    1.7729   49.0435 C.3     1  ZINC000581017854    0.1500
      3 H3         -2.7204    1.2972   49.1287 H       1  ZINC000581017854    0.1100
      4 C4         -1.9167    3.2927   49.0157 C.3     1  ZINC000581017854    0.0500
      5 O5         -2.6223    3.7131   50.1852 O.3     1  ZINC000581017854   -0.3100
      6 C6         -3.8786    3.2240   50.3569 C.ar    1  ZINC000581017854    0.1600
      7 C7         -4.7917    3.2736   49.3137 C.ar    1  ZINC000581017854   -0.2200
      8 C8         -6.0688    2.7760   49.4894 C.ar    1  ZINC000581017854   -0.0500
      9 C9         -6.4381    2.2290   50.7037 C.ar    1  ZINC000581017854   -0.1900
     10 C10        -5.5292    2.1782   51.7476 C.ar    1  ZINC000581017854    0.1400
     11 F11        -5.8921    1.6431   52.9339 F       1  ZINC000581017854   -0.1300
     12 C12        -4.2476    2.6693   51.5735 C.ar    1  ZINC000581017854   -0.1900
     13 N13        -1.0922    1.3330   47.8070 N.am    1  ZINC000581017854   -0.7300
     14 C14        -1.7829    1.3187   46.6499 C.2     1  ZINC000581017854    0.5900
     15 O15        -2.9477    1.6699   46.6323 O.2     1  ZINC000581017854   -0.5400
     16 C16        -1.1295    0.8793   45.4097 C.2     1  ZINC000581017854   -0.2200
     17 C17        -1.7446    0.4930   44.2558 C.2     1  ZINC000581017854    0.1100
     18 N18        -0.8135    0.1573   43.3301 N.pl3   1  ZINC000581017854   -0.5700
     19 C19         0.4565    0.3122   43.8465 C.ar    1  ZINC000581017854    0.1100
     20 C20         1.7282    0.1082   43.3219 C.ar    1  ZINC000581017854   -0.1600
     21 C21         2.8413    0.3555   44.0995 C.ar    1  ZINC000581017854    0.1200
     22 F22         4.0748    0.1564   43.5857 F       1  ZINC000581017854   -0.1400
     23 C23         2.7043    0.8079   45.4058 C.ar    1  ZINC000581017854   -0.1700
     24 C24         1.4520    1.0153   45.9413 C.ar    1  ZINC000581017854   -0.0300
     25 C25         0.3212    0.7752   45.1652 C.ar    1  ZINC000581017854   -0.0700
     26 H26        -1.3630    1.7073   51.1629 H       1  ZINC000581017854    0.0700
     27 H27        -0.7550    0.2972   50.2627 H       1  ZINC000581017854    0.0700
     28 H28         0.0985    1.8556   50.1578 H       1  ZINC000581017854    0.0700
     29 H29        -0.9369    3.7698   48.9915 H       1  ZINC000581017854    0.0700
     30 H30        -2.4818    3.5779   48.1283 H       1  ZINC000581017854    0.0800
     31 H31        -4.5047    3.7014   48.3645 H       1  ZINC000581017854    0.1400
     32 H32        -6.7793    2.8149   48.6770 H       1  ZINC000581017854    0.1400
     33 H33        -7.4369    1.8410   50.8389 H       1  ZINC000581017854    0.1400
     34 H34        -3.5383    2.6297   52.3870 H       1  ZINC000581017854    0.1400
     35 H35        -0.1640    1.0519   47.8212 H       1  ZINC000581017854    0.4000
     36 H36        -2.8132    0.4596   44.1026 H       1  ZINC000581017854    0.1800
     37 H37        -1.0120   -0.1492   42.4314 H       1  ZINC000581017854    0.4200
     38 H38         1.8447   -0.2437   42.3075 H       1  ZINC000581017854    0.1400
     39 H39         3.5832    0.9974   46.0041 H       1  ZINC000581017854    0.1400
     40 H40         1.3480    1.3667   46.9573 H       1  ZINC000581017854    0.1500
@<TRIPOS>BOND
     1     1     2    1
     2     1    26    1
     3     1    27    1
     4     1    28    1
     5     2     3    1
     6     2     4    1
     7     2    13    1
     8     4     5    1
     9     4    29    1
    10     4    30    1
    11     5     6    1
    12     6    12   ar
    13     6     7   ar
    14     7     8   ar
    15     7    31    1
    16     8     9   ar
    17     8    32    1
    18     9    10   ar
    19     9    33    1
    20    10    11    1
    21    10    12   ar
    22    12    34    1
    23    13    14   am
    24    13    35    1
    25    14    15    2
    26    14    16    1
    27    16    25    1
    28    16    17    2
    29    17    18    1
    30    17    36    1
    31    18    19    1
    32    18    37    1
    33    19    25   ar
    34    19    20   ar
    35    20    21   ar
    36    20    38    1
    37    21    22    1
    38    21    23   ar
    39    23    24   ar
    40    23    39    1
    41    24    25   ar
    42    24    40    1
@<TRIPOS>SUBSTRUCTURE
     1 ZINC000581017854        1 TEMP              0 ****  ****    0 ROOT


##########                                Name:    ZINC000542980334
##########                DOCK_Rotatable_Bonds:                   6
##########                         Heavy_Atoms:                  27
##########                    Molecular_Weight:             404.795
##########                DOCK_Rotatable_Bonds:                   6
##########                       Formal_Charge:           0.0300001
##########                     HBond_Acceptors:                  10
##########                        HBond_Donors:                   1
##########                         Heavy_Atoms:                  27
##########                          Grid_Score:          -27.946827
##########                     Grid_vdw_energy:          -27.798824
##########                      Grid_es_energy:           -0.148002
##########           Internal_energy_repulsive:           10.988734

@<TRIPOS>MOLECULE
ZINC000542980334
 44 46 1 0 0
SMALL
USER_CHARGES


@<TRIPOS>ATOM
      1 O1         -2.2367    0.1719   49.4883 O.2     1  ZINC000542980334   -0.5800
      2 C2         -2.4150    1.3160   49.1176 C.2     1  ZINC000542980334    0.7100
      3 N3         -1.5119    1.9127   48.3146 N.am    1  ZINC000542980334   -0.7400
      4 C4         -0.3123    1.1849   47.8933 C.3     1  ZINC000542980334    0.1800
      5 C5          0.1285    1.6830   46.5410 C.ar    1  ZINC000542980334   -0.1400
      6 C6          0.8904    2.8343   46.4418 C.ar    1  ZINC000542980334    0.1300
      7 F7          1.2392    3.5122   47.5572 F       1  ZINC000542980334   -0.1200
      8 C8          1.2953    3.2907   45.1986 C.ar    1  ZINC000542980334   -0.1500
      9 C9          0.9388    2.5968   44.0580 C.ar    1  ZINC000542980334   -0.0700
     10 C10         0.1779    1.4469   44.1571 C.ar    1  ZINC000542980334   -0.1200
     11 C11        -0.2231    0.9866   45.3986 C.ar    1  ZINC000542980334    0.0100
     12 Cl12       -1.1781   -0.4578   45.5219 Cl      1  ZINC000542980334   -0.0400
     13 N13        -3.5185    1.9857   49.5052 N.am    1  ZINC000542980334   -0.6300
     14 C14        -3.7508    3.3667   49.0607 C.3     1  ZINC000542980334    0.1100
     15 C15        -3.9969    4.2458   50.2908 C.3     1  ZINC000542980334   -0.1300
     16 C16        -5.1392    3.6510   51.1176 C.3     1  ZINC000542980334   -0.1300
     17 C17        -4.7498    2.2502   51.5951 C.3     1  ZINC000542980334    0.1400
     18 H18        -3.8374    2.3085   52.1887 H       1  ZINC000542980334    0.1100
     19 N19        -5.8306    1.6945   52.4133 N.pl3   1  ZINC000542980334   -0.3400
     20 C20        -5.9634    1.8275   53.7497 C.2     1  ZINC000542980334    0.0600
     21 C21        -7.0875    1.1713   54.1198 C.2     1  ZINC000542980334   -0.2300
     22 C22        -7.6614    0.6185   52.9702 C.2     1  ZINC000542980334   -0.0200
     23 C23        -8.9278   -0.1967   52.9194 C.3     1  ZINC000542980334    0.5600
     24 F24       -10.0253    0.6561   52.7598 F       1  ZINC000542980334   -0.1700
     25 F25        -8.8672   -1.0856   51.8407 F       1  ZINC000542980334   -0.1700
     26 F26        -9.0665   -0.9175   54.1103 F       1  ZINC000542980334   -0.1600
     27 N27        -6.9120    0.9367   51.9460 N.2     1  ZINC000542980334   -0.2300
     28 C28        -4.5151    1.3465   50.3752 C.3     1  ZINC000542980334    0.1300
     29 H29        -1.6560    2.8243   48.0157 H       1  ZINC000542980334    0.4000
     30 H30         0.4851    1.3480   48.6182 H       1  ZINC000542980334    0.0900
     31 H31        -0.5361    0.1198   47.8329 H       1  ZINC000542980334    0.0900
     32 H32         1.8895    4.1892   45.1205 H       1  ZINC000542980334    0.1500
     33 H33         1.2546    2.9533   43.0887 H       1  ZINC000542980334    0.1500
     34 H34        -0.1005    0.9055   43.2651 H       1  ZINC000542980334    0.1500
     35 H35        -2.8755    3.7292   48.5216 H       1  ZINC000542980334    0.0800
     36 H36        -4.6234    3.3987   48.4082 H       1  ZINC000542980334    0.0800
     37 H37        -3.0916    4.2854   50.8967 H       1  ZINC000542980334    0.0800
     38 H38        -4.2653    5.2525   49.9707 H       1  ZINC000542980334    0.0900
     39 H39        -5.3327    4.2882   51.9807 H       1  ZINC000542980334    0.0800
     40 H40        -6.0376    3.5888   50.5037 H       1  ZINC000542980334    0.0800
     41 H41        -5.2925    2.3615   54.4063 H       1  ZINC000542980334    0.1900
     42 H42        -7.4731    1.0886   55.1252 H       1  ZINC000542980334    0.1600
     43 H43        -5.4511    1.2149   49.8324 H       1  ZINC000542980334    0.0800
     44 H44        -4.1421    0.3769   50.7050 H       1  ZINC000542980334    0.1100
@<TRIPOS>BOND
     1     1     2    2
     2     2     3   am
     3     2    13   am
     4     3     4    1
     5     3    29    1
     6     4     5    1
     7     4    30    1
     8     4    31    1
     9     5    11   ar
    10     5     6   ar
    11     6     7    1
    12     6     8   ar
    13     8     9   ar
    14     8    32    1
    15     9    10   ar
    16     9    33    1
    17    10    11   ar
    18    10    34    1
    19    11    12    1
    20    13    28    1
    21    13    14    1
    22    14    15    1
    23    14    35    1
    24    14    36    1
    25    15    16    1
    26    15    37    1
    27    15    38    1
    28    16    17    1
    29    16    39    1
    30    16    40    1
    31    17    18    1
    32    17    19    1
    33    17    28    1
    34    19    27    1
    35    19    20    1
    36    20    21    2
    37    20    41    1
    38    21    22    1
    39    21    42    1
    40    22    23    1
    41    22    27    2
    42    23    24    1
    43    23    25    1
    44    23    26    1
    45    28    43    1
    46    28    44    1
@<TRIPOS>SUBSTRUCTURE
     1 ZINC000542980334        1 TEMP              0 ****  ****    0 ROOT


##########                                Name:    ZINC000337709254
##########                DOCK_Rotatable_Bonds:                   7
##########                         Heavy_Atoms:                  22
##########                    Molecular_Weight:              329.42
##########                DOCK_Rotatable_Bonds:                   7
##########                       Formal_Charge:           0.0300004
##########                     HBond_Acceptors:                   8
##########                        HBond_Donors:                   2
##########                         Heavy_Atoms:                  22
##########                          Grid_Score:          -27.941202
##########                     Grid_vdw_energy:          -27.311768
##########                      Grid_es_energy:           -0.629435
##########           Internal_energy_repulsive:           10.344834

@<TRIPOS>MOLECULE
ZINC000337709254
 45 46 1 0 0
SMALL
USER_CHARGES


@<TRIPOS>ATOM
      1 C1        -14.8498   -3.7072   58.2103 C.3     1  ZINC000337709254   -0.6700
      2 S2        -13.9576   -4.8470   57.1170 S.o2    1  ZINC000337709254    2.6100
      3 O3        -14.1178   -6.1885   57.5576 O.2     1  ZINC000337709254   -0.9500
      4 O4        -14.1606   -4.4937   55.7557 O.2     1  ZINC000337709254   -0.9500
      5 N5        -12.3584   -4.5155   57.3908 N.am    1  ZINC000337709254   -1.1200
      6 C6        -11.8345   -3.1719   57.1335 C.3     1  ZINC000337709254    0.1200
      7 C7        -11.5876   -2.4573   58.4638 C.3     1  ZINC000337709254   -0.1100
      8 H8        -12.4914   -2.4650   59.0733 H       1  ZINC000337709254    0.1100
      9 C9        -10.4140   -3.1210   59.2261 C.3     1  ZINC000337709254   -0.1200
     10 C10        -9.9233   -1.9834   60.1556 C.3     1  ZINC000337709254   -0.1200
     11 C11       -10.0520   -0.7096   59.2949 C.3     1  ZINC000337709254   -0.1400
     12 C12       -11.1136   -1.0098   58.2193 C.3     1  ZINC000337709254    0.1500
     13 H13       -11.9501   -0.3177   58.3168 H       1  ZINC000337709254    0.1000
     14 N14       -10.5214   -0.8957   56.8843 N.am    1  ZINC000337709254   -0.7200
     15 C15       -10.5190    0.2920   56.2473 C.2     1  ZINC000337709254    0.5300
     16 O16       -11.0083    1.2662   56.7790 O.2     1  ZINC000337709254   -0.5100
     17 C17        -9.9082    0.4098   54.8748 C.3     1  ZINC000337709254    0.0200
     18 C18        -9.8963    1.8223   54.4606 C.1     1  ZINC000337709254    0.2000
     19 N19        -9.8872    2.9124   54.1409 N.1     1  ZINC000337709254   -0.3900
     20 C20        -8.4748   -0.1296   54.9038 C.3     1  ZINC000337709254   -0.1500
     21 C21        -7.8900   -0.0789   53.4899 C.3     1  ZINC000337709254    0.0600
     22 O22        -8.7191   -0.8356   52.6054 O.3     1  ZINC000337709254   -0.3700
     23 C23       -10.0585   -0.3486   52.5016 C.3     1  ZINC000337709254    0.0600
     24 C24       -10.7305   -0.4102   53.8759 C.3     1  ZINC000337709254   -0.1300
     25 H25       -14.5658   -3.8991   59.2450 H       1  ZINC000337709254    0.1300
     26 H26       -14.5966   -2.6798   57.9486 H       1  ZINC000337709254    0.1300
     27 H27       -15.9231   -3.8577   58.0943 H       1  ZINC000337709254    0.1300
     28 H28       -11.7686   -5.2110   57.7214 H       1  ZINC000337709254    0.4200
     29 H29       -10.8973   -3.2466   56.5820 H       1  ZINC000337709254    0.0600
     30 H30       -12.5576   -2.6062   56.5460 H       1  ZINC000337709254    0.0900
     31 H31       -10.7646   -3.9725   59.8094 H       1  ZINC000337709254    0.0800
     32 H32        -9.6263   -3.4226   58.5356 H       1  ZINC000337709254    0.0700
     33 H33       -10.5575   -1.9125   61.0393 H       1  ZINC000337709254    0.0700
     34 H34        -8.8846   -2.1466   60.4427 H       1  ZINC000337709254    0.0700
     35 H35       -10.3759    0.1276   59.9132 H       1  ZINC000337709254    0.0800
     36 H36        -9.0963   -0.4789   58.8243 H       1  ZINC000337709254    0.0700
     37 H37       -10.1312   -1.6751   56.4585 H       1  ZINC000337709254    0.4000
     38 H38        -7.8685    0.4832   55.5709 H       1  ZINC000337709254    0.0900
     39 H39        -8.4805   -1.1601   55.2588 H       1  ZINC000337709254    0.1100
     40 H40        -7.8471    0.9563   53.1511 H       1  ZINC000337709254    0.0500
     41 H41        -6.8852   -0.5012   53.4966 H       1  ZINC000337709254    0.1100
     42 H42       -10.0440    0.6830   52.1499 H       1  ZINC000337709254    0.0500
     43 H43       -10.6159   -0.9654   51.7965 H       1  ZINC000337709254    0.1100
     44 H44       -10.7817   -1.4464   54.2101 H       1  ZINC000337709254    0.1100
     45 H45       -11.7372    0.0019   53.8078 H       1  ZINC000337709254    0.0900
@<TRIPOS>BOND
     1     1     2    1
     2     1    25    1
     3     1    26    1
     4     1    27    1
     5     2     3    2
     6     2     4    2
     7     2     5   am
     8     5     6    1
     9     5    28    1
    10     6     7    1
    11     6    29    1
    12     6    30    1
    13     7     8    1
    14     7    12    1
    15     7     9    1
    16     9    10    1
    17     9    31    1
    18     9    32    1
    19    10    11    1
    20    10    33    1
    21    10    34    1
    22    11    12    1
    23    11    35    1
    24    11    36    1
    25    12    13    1
    26    12    14    1
    27    14    15   am
    28    14    37    1
    29    15    16    2
    30    15    17    1
    31    17    24    1
    32    17    18    1
    33    17    20    1
    34    18    19    3
    35    20    21    1
    36    20    38    1
    37    20    39    1
    38    21    22    1
    39    21    40    1
    40    21    41    1
    41    22    23    1
    42    23    24    1
    43    23    42    1
    44    23    43    1
    45    24    44    1
    46    24    45    1
@<TRIPOS>SUBSTRUCTURE
     1 ZINC000337709254        1 TEMP              0 ****  ****    0 ROOT


##########                                Name:    ZINC000863208514
##########                DOCK_Rotatable_Bonds:                   6
##########                         Heavy_Atoms:                  19
##########                    Molecular_Weight:             368.657
##########                DOCK_Rotatable_Bonds:                   6
##########                       Formal_Charge:           0.0100005
##########                     HBond_Acceptors:                   7
##########                        HBond_Donors:                   2
##########                         Heavy_Atoms:                  19
##########                          Grid_Score:          -27.925106
##########                     Grid_vdw_energy:          -24.109217
##########                      Grid_es_energy:           -3.815890
##########           Internal_energy_repulsive:            8.972627

@<TRIPOS>MOLECULE
ZINC000863208514
 31 31 1 0 0
SMALL
USER_CHARGES


@<TRIPOS>ATOM
      1 C1         -7.3485    0.3209   67.9754 C.3     1  ZINC000863208514    0.0900
      2 N2         -7.2656    0.3767   66.5138 N.am    1  ZINC000863208514   -0.6100
      3 C3         -6.5234    1.4591   65.8630 C.3     1  ZINC000863208514    0.0700
      4 C4         -7.8724   -0.5679   65.7680 C.2     1  ZINC000863208514    0.5100
      5 O5         -8.4882   -1.4630   66.3067 O.2     1  ZINC000863208514   -0.5400
      6 C6         -7.7857   -0.5115   64.2646 C.3     1  ZINC000863208514    0.1100
      7 N7         -8.9669    0.1727   63.7326 N.am    1  ZINC000863208514   -0.6600
      8 C8         -9.3089    0.0187   62.4381 C.2     1  ZINC000863208514    0.5600
      9 S9        -10.6904    0.8167   61.8170 S.2     1  ZINC000863208514   -0.6000
     10 N10        -8.5634   -0.7634   61.6325 N.am    1  ZINC000863208514   -0.6300
     11 C11        -8.9188   -0.9234   60.2873 C.ar    1  ZINC000863208514    0.1200
     12 C12        -8.4133   -0.0587   59.3272 C.ar    1  ZINC000863208514   -0.0300
     13 C13        -8.7654   -0.2190   57.9996 C.ar    1  ZINC000863208514   -0.0200
     14 Cl14       -8.1326    0.8623   56.7980 Cl      1  ZINC000863208514   -0.0300
     15 C15        -9.6215   -1.2411   57.6276 C.ar    1  ZINC000863208514   -0.0600
     16 Br16      -10.1004   -1.4569   55.8110 Br      1  ZINC000863208514   -0.0100
     17 C17       -10.1272   -2.1057   58.5824 C.ar    1  ZINC000863208514   -0.1100
     18 C18        -9.7748   -1.9530   59.9105 C.ar    1  ZINC000863208514    0.1100
     19 F19       -10.2686   -2.7971   60.8426 F       1  ZINC000863208514   -0.1200
     20 H20        -6.8013    1.1612   68.4027 H       1  ZINC000863208514    0.0800
     21 H21        -8.3930    0.3737   68.2824 H       1  ZINC000863208514    0.0700
     22 H22        -6.9128   -0.6137   68.3287 H       1  ZINC000863208514    0.0700
     23 H23        -5.4846    1.1574   65.7283 H       1  ZINC000863208514    0.0700
     24 H24        -6.9688    1.6720   64.8913 H       1  ZINC000863208514    0.0800
     25 H25        -6.5643    2.3530   66.4852 H       1  ZINC000863208514    0.0800
     26 H26        -6.8879    0.0334   63.9726 H       1  ZINC000863208514    0.1200
     27 H27        -7.7419   -1.5246   63.8648 H       1  ZINC000863208514    0.1200
     28 H28        -9.5027    0.7367   64.3121 H       1  ZINC000863208514    0.4100
     29 H29        -7.7806   -1.2156   61.9845 H       1  ZINC000863208514    0.4200
     30 H30        -7.7455    0.7393   59.6165 H       1  ZINC000863208514    0.1800
     31 H31       -10.7951   -2.9023   58.2894 H       1  ZINC000863208514    0.1600
@<TRIPOS>BOND
     1     1     2    1
     2     1    20    1
     3     1    21    1
     4     1    22    1
     5     2     3    1
     6     2     4   am
     7     3    23    1
     8     3    24    1
     9     3    25    1
    10     4     5    2
    11     4     6    1
    12     6     7    1
    13     6    26    1
    14     6    27    1
    15     7     8   am
    16     7    28    1
    17     8     9    2
    18     8    10   am
    19    10    11    1
    20    10    29    1
    21    11    18   ar
    22    11    12   ar
    23    12    13   ar
    24    12    30    1
    25    13    14    1
    26    13    15   ar
    27    15    16    1
    28    15    17   ar
    29    17    18   ar
    30    17    31    1
    31    18    19    1
@<TRIPOS>SUBSTRUCTURE
     1 ZINC000863208514        1 TEMP              0 ****  ****    0 ROOT


##########                                Name:    ZINC000028372981
##########                DOCK_Rotatable_Bonds:                   7
##########                         Heavy_Atoms:                  28
##########                    Molecular_Weight:             380.443
##########                DOCK_Rotatable_Bonds:                   7
##########                       Formal_Charge:         1.78814e-07
##########                     HBond_Acceptors:                   6
##########                        HBond_Donors:                   1
##########                         Heavy_Atoms:                  28
##########                          Grid_Score:          -27.923525
##########                     Grid_vdw_energy:          -26.614489
##########                      Grid_es_energy:           -1.309036
##########           Internal_energy_repulsive:           18.232990

@<TRIPOS>MOLECULE
ZINC000028372981
 52 54 1 0 0
SMALL
USER_CHARGES


@<TRIPOS>ATOM
      1 C1          2.9822    1.9098   52.0750 C.3     1  ZINC000028372981   -0.1800
      2 C2          1.6152    2.4595   52.3913 C.2     1  ZINC000028372981    0.5200
      3 O3          1.4370    3.0922   53.4105 O.2     1  ZINC000028372981   -0.5100
      4 N4          0.5907    2.2479   51.5416 N.am    1  ZINC000028372981   -0.5500
      5 C5          0.6848    1.5027   50.2837 C.3     1  ZINC000028372981    0.1000
      6 C6         -0.7309    1.5403   49.6853 C.3     1  ZINC000028372981   -0.0900
      7 C7         -1.5442    2.3311   50.6857 C.ar    1  ZINC000028372981   -0.1500
      8 C8         -2.8753    2.6832   50.6872 C.ar    1  ZINC000028372981    0.0000
      9 C9         -3.3989    3.4348   51.7431 C.ar    1  ZINC000028372981   -0.1600
     10 C10        -4.8225    3.8192   51.7471 C.2     1  ZINC000028372981    0.5200
     11 O11        -5.1773    4.8295   52.3213 O.2     1  ZINC000028372981   -0.5000
     12 O12        -5.7298    3.0501   51.1141 O.3     1  ZINC000028372981   -0.3200
     13 C13        -5.8264    1.6635   51.5339 C.3     1  ZINC000028372981    0.0700
     14 H14        -4.8448    1.3103   51.8497 H       1  ZINC000028372981    0.1200
     15 C15        -6.3238    0.8102   50.3653 C.3     1  ZINC000028372981   -0.1700
     16 C16        -6.7940    1.5531   52.6841 C.2     1  ZINC000028372981    0.5200
     17 O17        -7.1796    2.5539   53.2503 O.2     1  ZINC000028372981   -0.4900
     18 N18        -7.2308    0.3422   53.0834 N.am    1  ZINC000028372981   -0.6600
     19 C19        -8.1291    0.2397   54.1512 C.ar    1  ZINC000028372981    0.1500
     20 C20        -7.7203    0.5645   55.4379 C.ar    1  ZINC000028372981   -0.1300
     21 C21        -8.6097    0.4628   56.4899 C.ar    1  ZINC000028372981   -0.1000
     22 C22        -9.9059    0.0384   56.2626 C.ar    1  ZINC000028372981   -0.1300
     23 C23       -10.3163   -0.2854   54.9823 C.ar    1  ZINC000028372981   -0.0700
     24 C24       -11.7300   -0.7470   54.7391 C.3     1  ZINC000028372981   -0.1200
     25 C25        -9.4318   -0.1867   53.9264 C.ar    1  ZINC000028372981   -0.1200
     26 C26        -9.8794   -0.5407   52.5317 C.3     1  ZINC000028372981   -0.1200
     27 C27        -2.5641    3.8146   52.7981 C.ar    1  ZINC000028372981   -0.0200
     28 C28        -1.2383    3.4542   52.7911 C.ar    1  ZINC000028372981   -0.1800
     29 C29        -0.7115    2.7065   51.7324 C.ar    1  ZINC000028372981    0.1900
     30 H30         3.3324    2.3277   51.1311 H       1  ZINC000028372981    0.1000
     31 H31         3.6757    2.1800   52.8715 H       1  ZINC000028372981    0.1000
     32 H32         2.9275    0.8243   51.9936 H       1  ZINC000028372981    0.1000
     33 H33         1.3927    1.9858   49.6103 H       1  ZINC000028372981    0.0900
     34 H34         0.9868    0.4732   50.4759 H       1  ZINC000028372981    0.0900
     35 H35        -0.7222    2.0443   48.7189 H       1  ZINC000028372981    0.1000
     36 H36        -1.1277    0.5302   49.5833 H       1  ZINC000028372981    0.1000
     37 H37        -3.5142    2.3822   49.8702 H       1  ZINC000028372981    0.1400
     38 H38        -7.3054    1.1634   50.0495 H       1  ZINC000028372981    0.0800
     39 H39        -5.6240    0.8901   49.5334 H       1  ZINC000028372981    0.0800
     40 H40        -6.3962   -0.2307   50.6805 H       1  ZINC000028372981    0.0800
     41 H41        -6.9223   -0.4582   52.6305 H       1  ZINC000028372981    0.4100
     42 H42        -6.7094    0.9007   55.6152 H       1  ZINC000028372981    0.1400
     43 H43        -8.2924    0.7153   57.4908 H       1  ZINC000028372981    0.1300
     44 H44       -10.5995   -0.0399   57.0869 H       1  ZINC000028372981    0.1200
     45 H45       -12.3625    0.1152   54.5277 H       1  ZINC000028372981    0.0700
     46 H46       -11.7485   -1.4284   53.8886 H       1  ZINC000028372981    0.0700
     47 H47       -12.1017   -1.2617   55.6252 H       1  ZINC000028372981    0.0700
     48 H48       -10.2791    0.3472   52.0420 H       1  ZINC000028372981    0.0700
     49 H49        -9.0301   -0.9184   51.9624 H       1  ZINC000028372981    0.0600
     50 H50       -10.6528   -1.3071   52.5820 H       1  ZINC000028372981    0.0800
     51 H51        -2.9619    4.3916   53.6198 H       1  ZINC000028372981    0.1500
     52 H52        -0.5979    3.7506   53.6087 H       1  ZINC000028372981    0.1500
@<TRIPOS>BOND
     1     1     2    1
     2     1    30    1
     3     1    31    1
     4     1    32    1
     5     2     3    2
     6     2     4   am
     7     4    29    1
     8     4     5    1
     9     5     6    1
    10     5    33    1
    11     5    34    1
    12     6     7    1
    13     6    35    1
    14     6    36    1
    15     7    29   ar
    16     7     8   ar
    17     8     9   ar
    18     8    37    1
    19     9    10    1
    20     9    27   ar
    21    10    11    2
    22    10    12    1
    23    12    13    1
    24    13    14    1
    25    13    15    1
    26    13    16    1
    27    15    38    1
    28    15    39    1
    29    15    40    1
    30    16    17    2
    31    16    18   am
    32    18    19    1
    33    18    41    1
    34    19    25   ar
    35    19    20   ar
    36    20    21   ar
    37    20    42    1
    38    21    22   ar
    39    21    43    1
    40    22    23   ar
    41    22    44    1
    42    23    24    1
    43    23    25   ar
    44    24    45    1
    45    24    46    1
    46    24    47    1
    47    25    26    1
    48    26    48    1
    49    26    49    1
    50    26    50    1
    51    27    28   ar
    52    27    51    1
    53    28    29   ar
    54    28    52    1
@<TRIPOS>SUBSTRUCTURE
     1 ZINC000028372981        1 TEMP              0 ****  ****    0 ROOT


##########                                Name:    ZINC000646817380
##########                DOCK_Rotatable_Bonds:                   6
##########                         Heavy_Atoms:                  25
##########                    Molecular_Weight:             347.457
##########                DOCK_Rotatable_Bonds:                   6
##########                       Formal_Charge:           0.0199991
##########                     HBond_Acceptors:                   6
##########                        HBond_Donors:                   1
##########                         Heavy_Atoms:                  25
##########                          Grid_Score:          -27.920622
##########                     Grid_vdw_energy:          -27.494436
##########                      Grid_es_energy:           -0.426186
##########           Internal_energy_repulsive:           56.736259

@<TRIPOS>MOLECULE
ZINC000646817380
 54 56 1 0 0
SMALL
USER_CHARGES


@<TRIPOS>ATOM
      1 C1         -2.6903    3.1280   51.2122 C.3     1  ZINC000646817380   -0.1500
      2 C2         -3.1745    2.4596   49.9239 C.3     1  ZINC000646817380   -0.0100
      3 C3         -2.2686    1.2716   49.5940 C.3     1  ZINC000646817380   -0.1500
      4 C4         -4.5896    1.9758   50.1100 C.2     1  ZINC000646817380   -0.0100
      5 C5         -5.2727    1.9052   51.2750 C.2     1  ZINC000646817380   -0.2200
      6 C6         -6.5412    1.3890   50.8975 C.2     1  ZINC000646817380    0.2400
      7 N7         -7.6213    1.1260   51.7380 N.am    1  ZINC000646817380   -0.6100
      8 C8         -7.4085    0.6377   52.9760 C.2     1  ZINC000646817380    0.5200
      9 O9         -6.2763    0.4283   53.3594 O.2     1  ZINC000646817380   -0.4900
     10 C10        -8.5662    0.3541   53.8763 C.2     1  ZINC000646817380    0.5300
     11 O11        -9.5446   -0.2194   53.4441 O.2     1  ZINC000646817380   -0.5100
     12 N12        -8.5244    0.7350   55.1684 N.am    1  ZINC000646817380   -0.5800
     13 C13        -7.4071    1.4342   55.8197 C.3     1  ZINC000646817380    0.1000
     14 C14        -7.7950    1.6389   57.2994 C.3     1  ZINC000646817380   -0.1300
     15 C15        -8.8683    0.5430   57.5322 C.3     1  ZINC000646817380   -0.1000
     16 H16        -8.4038   -0.4200   57.7446 H       1  ZINC000646817380    0.1000
     17 C17        -9.8282    0.9449   58.6537 C.3     1  ZINC000646817380   -0.0700
     18 H18        -9.9093    2.0307   58.7042 H       1  ZINC000646817380    0.0800
     19 C19       -11.2181    0.3220   58.4083 C.3     1  ZINC000646817380   -0.1300
     20 C20       -11.7215   -0.0533   59.8242 C.3     1  ZINC000646817380   -0.1300
     21 C21       -10.4328   -0.5516   60.5242 C.3     1  ZINC000646817380   -0.1200
     22 C22        -9.3283    0.3906   59.9992 C.3     1  ZINC000646817380   -0.0700
     23 C23        -8.0281   -0.3894   59.7941 C.3     1  ZINC000646817380   -0.1600
     24 C24        -9.1027    1.5359   60.9883 C.3     1  ZINC000646817380   -0.1400
     25 C25        -9.5940    0.5252   56.1611 C.3     1  ZINC000646817380    0.0900
     26 N26        -6.4921    1.2106   49.6033 N.2     1  ZINC000646817380   -0.3800
     27 O27        -5.4187    1.5369   49.1520 O.3     1  ZINC000646817380    0.1100
     28 H28        -1.6669    3.4779   51.0775 H       1  ZINC000646817380    0.0700
     29 H29        -3.3358    3.9743   51.4471 H       1  ZINC000646817380    0.0600
     30 H30        -2.7236    2.4078   52.0298 H       1  ZINC000646817380    0.0600
     31 H31        -3.1413    3.1797   49.1063 H       1  ZINC000646817380    0.1100
     32 H32        -2.3018    0.5514   50.4117 H       1  ZINC000646817380    0.0600
     33 H33        -2.6135    0.7954   48.6763 H       1  ZINC000646817380    0.0600
     34 H34        -1.2451    1.6215   49.4594 H       1  ZINC000646817380    0.0700
     35 H35        -4.9327    2.1777   52.2632 H       1  ZINC000646817380    0.1900
     36 H36        -8.5262    1.2945   51.4320 H       1  ZINC000646817380    0.4300
     37 H37        -6.5025    0.8297   55.7539 H       1  ZINC000646817380    0.0800
     38 H38        -7.2454    2.4004   55.3419 H       1  ZINC000646817380    0.0800
     39 H39        -6.9343    1.4800   57.9492 H       1  ZINC000646817380    0.0900
     40 H40        -8.2177    2.6317   57.4535 H       1  ZINC000646817380    0.0800
     41 H41       -11.8858    1.0492   57.9462 H       1  ZINC000646817380    0.0700
     42 H42       -11.1324   -0.5685   57.7854 H       1  ZINC000646817380    0.0800
     43 H43       -12.1253    0.8210   60.3349 H       1  ZINC000646817380    0.0700
     44 H44       -12.4648   -0.8488   59.7716 H       1  ZINC000646817380    0.0700
     45 H45       -10.5275   -0.4619   61.6064 H       1  ZINC000646817380    0.0700
     46 H46       -10.2203   -1.5831   60.2431 H       1  ZINC000646817380    0.0700
     47 H47        -8.2565   -1.3786   59.3974 H       1  ZINC000646817380    0.0700
     48 H48        -7.3906    0.1459   59.0905 H       1  ZINC000646817380    0.0600
     49 H49        -7.5109   -0.4909   60.7482 H       1  ZINC000646817380    0.0500
     50 H50        -8.7730    1.1304   61.9448 H       1  ZINC000646817380    0.0600
     51 H51        -8.3400    2.2090   60.5968 H       1  ZINC000646817380    0.0500
     52 H52       -10.0342    2.0843   61.1278 H       1  ZINC000646817380    0.0600
     53 H53       -10.3288    1.3287   56.1103 H       1  ZINC000646817380    0.0900
     54 H54       -10.0739   -0.4398   55.9985 H       1  ZINC000646817380    0.1000
@<TRIPOS>BOND
     1     1     2    1
     2     1    28    1
     3     1    29    1
     4     1    30    1
     5     2     3    1
     6     2     4    1
     7     2    31    1
     8     3    32    1
     9     3    33    1
    10     3    34    1
    11     4    27    1
    12     4     5    2
    13     5     6    1
    14     5    35    1
    15     6     7    1
    16     6    26    2
    17     7     8   am
    18     7    36    1
    19     8     9    2
    20     8    10    1
    21    10    11    2
    22    10    12   am
    23    12    25    1
    24    12    13    1
    25    13    14    1
    26    13    37    1
    27    13    38    1
    28    14    15    1
    29    14    39    1
    30    14    40    1
    31    15    16    1
    32    15    17    1
    33    15    25    1
    34    17    18    1
    35    17    22    1
    36    17    19    1
    37    19    20    1
    38    19    41    1
    39    19    42    1
    40    20    21    1
    41    20    43    1
    42    20    44    1
    43    21    22    1
    44    21    45    1
    45    21    46    1
    46    22    23    1
    47    22    24    1
    48    23    47    1
    49    23    48    1
    50    23    49    1
    51    24    50    1
    52    24    51    1
    53    24    52    1
    54    25    53    1
    55    25    54    1
    56    26    27    1
@<TRIPOS>SUBSTRUCTURE
     1 ZINC000646817380        1 TEMP              0 ****  ****    0 ROOT


##########                                Name:    ZINC000493443319
##########                DOCK_Rotatable_Bonds:                   6
##########                         Heavy_Atoms:                  25
##########                    Molecular_Weight:             348.399
##########                DOCK_Rotatable_Bonds:                   6
##########                       Formal_Charge:        -3.27826e-07
##########                     HBond_Acceptors:                   7
##########                        HBond_Donors:                   0
##########                         Heavy_Atoms:                  25
##########                          Grid_Score:          -27.916132
##########                     Grid_vdw_energy:          -26.591604
##########                      Grid_es_energy:           -1.324529
##########           Internal_energy_repulsive:           50.256161

@<TRIPOS>MOLECULE
ZINC000493443319
 49 51 1 0 0
SMALL
USER_CHARGES


@<TRIPOS>ATOM
      1 C1         -6.9348    0.1303   52.5978 C.3     1  <0>        -0.1500
      2 C2         -7.4301    0.6031   53.9660 C.3     1  <0>         0.0500
      3 O3         -8.5927   -0.1411   54.3350 O.3     1  <0>        -0.3200
      4 C4         -9.0490    0.0166   55.6063 C.ar    1  <0>         0.1000
      5 C5         -8.5830    1.0654   56.3852 C.ar    1  <0>        -0.1700
      6 C6         -9.0463    1.2256   57.6766 C.ar    1  <0>        -0.1100
      7 C7         -9.9781    0.3380   58.1942 C.ar    1  <0>         0.0800
      8 O8        -10.4340    0.4956   59.4655 O.3     1  <0>        -0.3000
      9 C9         -9.9403   -0.4156   60.4494 C.3     1  <0>         0.1000
     10 C10        -8.4694   -0.7261   60.1645 C.3     1  <0>        -0.1800
     11 C11       -10.0690    0.2140   61.8379 C.3     1  <0>        -0.1500
     12 C12       -10.7416   -1.6910   60.4000 C.2     1  <0>         0.5100
     13 O13       -10.1754   -2.7598   60.3111 O.2     1  <0>        -0.5200
     14 N14       -12.0874   -1.6437   60.4545 N.am    1  <0>        -0.6000
     15 C15       -12.7757   -0.3513   60.5621 C.3     1  <0>         0.0700
     16 C16       -13.7682   -0.2127   59.3966 C.3     1  <0>         0.1300
     17 N17       -14.5072   -1.4790   59.2962 N.am    1  <0>        -0.6300
     18 C18       -15.8276   -1.6686   59.2867 C.2     1  <0>         0.6500
     19 O19       -16.6295   -0.7603   59.1957 O.2     1  <0>        -0.5200
     20 O20       -16.1855   -2.9559   59.3872 O.3     1  <0>        -0.3200
     21 C21       -14.9918   -3.7938   59.3871 C.3     1  <0>         0.0500
     22 C22       -13.8362   -2.7945   59.2164 C.3     1  <0>         0.0800
     23 H23       -13.3277   -2.9292   58.2617 H       1  <0>         0.1100
     24 C24       -12.8725   -2.8865   60.4001 C.3     1  <0>         0.1000
     25 C25       -10.4452   -0.7098   57.4148 C.ar    1  <0>        -0.1800
     26 C26        -9.9845   -0.8678   56.1221 C.ar    1  <0>        -0.1100
     27 H27        -6.0479    0.6980   52.3163 H       1  <0>         0.0800
     28 H28        -6.6869   -0.9299   52.6476 H       1  <0>         0.0700
     29 H29        -7.7169    0.2861   51.8547 H       1  <0>         0.0700
     30 H30        -6.6479    0.4474   54.7092 H       1  <0>         0.0600
     31 H31        -7.6779    1.6633   53.9162 H       1  <0>         0.0600
     32 H32        -7.8574    1.7564   55.9822 H       1  <0>         0.1400
     33 H33        -8.6830    2.0418   58.2834 H       1  <0>         0.1400
     34 H34        -7.8706    0.1697   60.3289 H       1  <0>         0.0800
     35 H35        -8.1293   -1.5180   60.8319 H       1  <0>         0.0900
     36 H36        -8.3605   -1.0512   59.1298 H       1  <0>         0.0800
     37 H37       -11.1027    0.5165   62.0052 H       1  <0>         0.0800
     38 H38        -9.7760   -0.5132   62.5952 H       1  <0>         0.0900
     39 H39        -9.4199    1.0872   61.9025 H       1  <0>         0.0900
     40 H40       -13.3151   -0.3033   61.5080 H       1  <0>         0.0800
     41 H41       -12.0447    0.4559   60.5164 H       1  <0>         0.1300
     42 H42       -14.4606    0.6056   59.5947 H       1  <0>         0.1100
     43 H43       -13.2270   -0.0250   58.4692 H       1  <0>         0.0800
     44 H44       -14.8992   -4.3272   60.3331 H       1  <0>         0.1100
     45 H45       -15.0171   -4.4949   58.5528 H       1  <0>         0.1100
     46 H46       -12.2052   -3.7379   60.2662 H       1  <0>         0.1100
     47 H47       -13.4364   -3.0018   61.3258 H       1  <0>         0.0800
     48 H48       -11.1710   -1.4008   57.8176 H       1  <0>         0.1600
     49 H49       -10.3483   -1.6838   55.5152 H       1  <0>         0.1300
@<TRIPOS>BOND
     1     1     2    1
     2     1    27    1
     3     1    28    1
     4     1    29    1
     5     2     3    1
     6     2    30    1
     7     2    31    1
     8     3     4    1
     9     4    26   ar
    10     4     5   ar
    11     5     6   ar
    12     5    32    1
    13     6     7   ar
    14     6    33    1
    15     7     8    1
    16     7    25   ar
    17     8     9    1
    18     9    10    1
    19     9    11    1
    20     9    12    1
    21    10    34    1
    22    10    35    1
    23    10    36    1
    24    11    37    1
    25    11    38    1
    26    11    39    1
    27    12    13    2
    28    12    14   am
    29    14    24    1
    30    14    15    1
    31    15    16    1
    32    15    40    1
    33    15    41    1
    34    16    17    1
    35    16    42    1
    36    16    43    1
    37    17    22    1
    38    17    18   am
    39    18    19    2
    40    18    20    1
    41    20    21    1
    42    21    22    1
    43    21    44    1
    44    21    45    1
    45    22    23    1
    46    22    24    1
    47    24    46    1
    48    24    47    1
    49    25    26   ar
    50    25    48    1
    51    26    49    1
@<TRIPOS>SUBSTRUCTURE
     1 <0>         1 TEMP              0 ****  ****    0 ROOT


##########                                Name:    ZINC000080099940
##########                DOCK_Rotatable_Bonds:                   4
##########                         Heavy_Atoms:                  26
##########                    Molecular_Weight:             343.388
##########                DOCK_Rotatable_Bonds:                   4
##########                       Formal_Charge:        -3.42727e-07
##########                     HBond_Acceptors:                   6
##########                        HBond_Donors:                   1
##########                         Heavy_Atoms:                  26
##########                          Grid_Score:          -27.883087
##########                     Grid_vdw_energy:          -27.648846
##########                      Grid_es_energy:           -0.234241
##########           Internal_energy_repulsive:            1.949495

@<TRIPOS>MOLECULE
ZINC000080099940
 43 46 1 0 0
SMALL
USER_CHARGES


@<TRIPOS>ATOM
      1 C1         -3.1037    1.7821   49.4240 C.3     1  ZINC000080099940   -0.1100
      2 C2         -4.1579    1.9314   50.4906 C.2     1  ZINC000080099940   -0.0700
      3 C3         -4.9743    0.8872   50.7952 C.2     1  ZINC000080099940   -0.0900
      4 C4         -5.9548    1.0456   51.7960 C.2     1  ZINC000080099940    0.2300
      5 N5         -6.8653    0.2175   52.2863 N.2     1  ZINC000080099940   -0.4800
      6 C6         -7.5689    0.8513   53.2380 C.2     1  ZINC000080099940    0.1000
      7 C7         -8.6802    0.2691   54.0301 C.ar    1  ZINC000080099940   -0.0200
      8 C8         -9.8709   -0.0917   53.4016 C.ar    1  ZINC000080099940   -0.0800
      9 C9        -10.9022   -0.6330   54.1395 C.ar    1  ZINC000080099940   -0.1200
     10 C10       -10.7553   -0.8185   55.5092 C.ar    1  ZINC000080099940    0.1500
     11 N11       -11.8021   -1.3669   56.2552 N.am    1  ZINC000080099940   -0.6500
     12 C12       -11.8684   -2.6996   56.4450 C.2     1  ZINC000080099940    0.5700
     13 O13       -11.0182   -3.4243   55.9675 O.2     1  ZINC000080099940   -0.5000
     14 C14       -12.9800   -3.2818   57.2372 C.ar    1  ZINC000080099940    0.1300
     15 C15       -13.2534   -4.6488   57.1776 C.ar    1  ZINC000080099940   -0.1700
     16 C16       -14.3037   -5.1427   57.9385 C.ar    1  ZINC000080099940    0.1600
     17 N17       -15.0039   -4.3087   58.6878 N.ar    1  ZINC000080099940   -0.5000
     18 C18       -14.7186   -3.0212   58.7212 C.ar    1  ZINC000080099940    0.3200
     19 C19       -15.5463   -2.1108   59.5914 C.3     1  ZINC000080099940   -0.0900
     20 N20       -13.7294   -2.5096   58.0209 N.ar    1  ZINC000080099940   -0.5000
     21 C21        -9.5687   -0.4597   56.1378 C.ar    1  ZINC000080099940   -0.1400
     22 C22        -8.5329    0.0769   55.4028 C.ar    1  ZINC000080099940   -0.0700
     23 C23        -7.0870    2.1205   53.3522 C.2     1  ZINC000080099940   -0.0900
     24 N24        -6.0709    2.2472   52.4465 N.pl3   1  ZINC000080099940   -0.3600
     25 C25        -5.2444    3.2870   52.1305 C.2     1  ZINC000080099940    0.0600
     26 C26        -4.2977    3.1480   51.1789 C.2     1  ZINC000080099940   -0.1400
     27 H27        -2.5505    2.7162   49.3266 H       1  ZINC000080099940    0.0700
     28 H28        -2.4182    0.9810   49.7002 H       1  ZINC000080099940    0.0800
     29 H29        -3.5801    1.5412   48.4736 H       1  ZINC000080099940    0.0800
     30 H30        -4.8729   -0.0540   50.2752 H       1  ZINC000080099940    0.1500
     31 H31        -9.9857    0.0528   52.3375 H       1  ZINC000080099940    0.1300
     32 H32       -11.8249   -0.9128   53.6529 H       1  ZINC000080099940    0.1400
     33 H33       -12.4809   -0.7883   56.6366 H       1  ZINC000080099940    0.4200
     34 H34       -12.6633   -5.3052   56.5552 H       1  ZINC000080099940    0.1600
     35 H35       -14.5461   -6.1950   57.9184 H       1  ZINC000080099940    0.1800
     36 H36       -15.1015   -2.0545   60.5849 H       1  ZINC000080099940    0.0900
     37 H37       -15.5766   -1.1148   59.1497 H       1  ZINC000080099940    0.0900
     38 H38       -16.5597   -2.5049   59.6689 H       1  ZINC000080099940    0.0900
     39 H39        -9.4566   -0.6048   57.2021 H       1  ZINC000080099940    0.1300
     40 H40        -7.6110    0.3551   55.8916 H       1  ZINC000080099940    0.1400
     41 H41        -7.4412    2.8829   54.0303 H       1  ZINC000080099940    0.1900
     42 H42        -5.3463    4.2281   52.6503 H       1  ZINC000080099940    0.1700
     43 H43        -3.6504    3.9787   50.9392 H       1  ZINC000080099940    0.1500
@<TRIPOS>BOND
     1     1     2    1
     2     1    27    1
     3     1    28    1
     4     1    29    1
     5     2    26    1
     6     2     3    2
     7     3     4    1
     8     3    30    1
     9     4    24    1
    10     4     5    2
    11     5     6    1
    12     6     7    1
    13     6    23    2
    14     7    22   ar
    15     7     8   ar
    16     8     9   ar
    17     8    31    1
    18     9    10   ar
    19     9    32    1
    20    10    11    1
    21    10    21   ar
    22    11    12   am
    23    11    33    1
    24    12    13    2
    25    12    14    1
    26    14    20   ar
    27    14    15   ar
    28    15    16   ar
    29    15    34    1
    30    16    17   ar
    31    16    35    1
    32    17    18   ar
    33    18    19    1
    34    18    20   ar
    35    19    36    1
    36    19    37    1
    37    19    38    1
    38    21    22   ar
    39    21    39    1
    40    22    40    1
    41    23    24    1
    42    23    41    1
    43    24    25    1
    44    25    26    2
    45    25    42    1
    46    26    43    1
@<TRIPOS>SUBSTRUCTURE
     1 ZINC000080099940        1 TEMP              0 ****  ****    0 ROOT


##########                                Name:    ZINC000469435497
##########                DOCK_Rotatable_Bonds:                   6
##########                         Heavy_Atoms:                  27
##########                    Molecular_Weight:             364.444
##########                DOCK_Rotatable_Bonds:                   6
##########                       Formal_Charge:           0.0300001
##########                     HBond_Acceptors:                   5
##########                        HBond_Donors:                   2
##########                         Heavy_Atoms:                  27
##########                          Grid_Score:          -27.861383
##########                     Grid_vdw_energy:          -25.934561
##########                      Grid_es_energy:           -1.926822
##########           Internal_energy_repulsive:            5.284830

@<TRIPOS>MOLECULE
ZINC000469435497
 51 54 1 0 0
SMALL
USER_CHARGES


@<TRIPOS>ATOM
      1 C1         -2.2696    1.2598   50.3743 C.3     1  ZINC000469435497   -0.1600
      2 C2         -3.1237    2.5259   50.2836 C.3     1  ZINC000469435497    0.1000
      3 C3         -2.4122    3.5992   49.4575 C.3     1  ZINC000469435497   -0.1400
      4 C4         -4.5164    2.2061   49.6908 C.3     1  ZINC000469435497   -0.1000
      5 C5         -5.3406    1.9619   50.9403 C.ar    1  ZINC000469435497   -0.1500
      6 C6         -6.5705    1.3752   51.1344 C.ar    1  ZINC000469435497   -0.0700
      7 C7         -7.0963    1.2753   52.4169 C.ar    1  ZINC000469435497    0.1100
      8 N8         -8.3476    0.6788   52.6210 N.am    1  ZINC000469435497   -0.6600
      9 C9         -9.4019    1.4336   52.9884 C.2     1  ZINC000469435497    0.5100
     10 O10        -9.2676    2.6292   53.1424 O.2     1  ZINC000469435497   -0.5200
     11 C11       -10.7479    0.7921   53.2080 C.3     1  ZINC000469435497    0.1000
     12 N12       -11.5064    0.8073   51.9548 N.am    1  ZINC000469435497   -0.7200
     13 C13       -12.3003    1.8558   51.6603 C.2     1  ZINC000469435497    0.5700
     14 O14       -12.3881    2.7882   52.4352 O.2     1  ZINC000469435497   -0.5300
     15 C15       -13.0645    1.8720   50.3947 C.ar    1  ZINC000469435497   -0.1400
     16 C16       -13.6728    3.0492   49.9574 C.ar    1  ZINC000469435497   -0.0800
     17 C17       -14.3833    3.0550   48.7761 C.ar    1  ZINC000469435497   -0.1100
     18 C18       -14.4972    1.8986   48.0202 C.ar    1  ZINC000469435497   -0.0700
     19 C19       -15.2133    1.6544   46.7085 C.3     1  ZINC000469435497   -0.0900
     20 C20       -14.6224    0.3365   46.1646 C.3     1  ZINC000469435497   -0.1200
     21 C21       -14.1682   -0.3805   47.4536 C.3     1  ZINC000469435497   -0.0800
     22 C22       -13.8961    0.7277   48.4487 C.ar    1  ZINC000469435497   -0.1100
     23 C23       -13.1766    0.7120   49.6283 C.ar    1  ZINC000469435497   -0.0400
     24 C24        -6.3744    1.7697   53.4947 C.ar    1  ZINC000469435497   -0.1000
     25 C25        -5.1443    2.3604   53.2955 C.ar    1  ZINC000469435497   -0.1200
     26 C26        -4.6143    2.4657   52.0121 C.ar    1  ZINC000469435497    0.1000
     27 O27        -3.4420    3.0206   51.5955 O.3     1  ZINC000469435497   -0.3000
     28 H28        -2.8073    0.4984   50.9394 H       1  ZINC000469435497    0.0600
     29 H29        -2.0625    0.8886   49.3706 H       1  ZINC000469435497    0.0800
     30 H30        -1.3305    1.4902   50.8773 H       1  ZINC000469435497    0.0700
     31 H31        -2.2431    3.2273   48.4469 H       1  ZINC000469435497    0.0800
     32 H32        -3.0311    4.4955   49.4159 H       1  ZINC000469435497    0.0700
     33 H33        -1.4554    3.8396   49.9210 H       1  ZINC000469435497    0.0700
     34 H34        -4.9045    3.0551   49.1280 H       1  ZINC000469435497    0.0900
     35 H35        -4.4788    1.3123   49.0681 H       1  ZINC000469435497    0.0900
     36 H36        -7.1266    0.9933   50.2910 H       1  ZINC000469435497    0.1400
     37 H37        -8.4550   -0.2773   52.4977 H       1  ZINC000469435497    0.4200
     38 H38       -10.6101   -0.2378   53.5368 H       1  ZINC000469435497    0.1100
     39 H39       -11.2947    1.3469   53.9704 H       1  ZINC000469435497    0.1100
     40 H40       -11.4372    0.0627   51.3369 H       1  ZINC000469435497    0.4100
     41 H41       -13.5875    3.9530   50.5425 H       1  ZINC000469435497    0.1300
     42 H42       -14.8545    3.9660   48.4377 H       1  ZINC000469435497    0.1300
     43 H43       -16.2850    1.5472   46.8769 H       1  ZINC000469435497    0.0900
     44 H44       -15.0188    2.4713   46.0135 H       1  ZINC000469435497    0.0800
     45 H45       -15.3846   -0.2449   45.6459 H       1  ZINC000469435497    0.0800
     46 H46       -13.7726    0.5338   45.5111 H       1  ZINC000469435497    0.0700
     47 H47       -14.9593   -1.0336   47.8218 H       1  ZINC000469435497    0.0800
     48 H48       -13.2597   -0.9532   47.2677 H       1  ZINC000469435497    0.0800
     49 H49       -12.7032   -0.2007   49.9591 H       1  ZINC000469435497    0.1400
     50 H50        -6.7781    1.6917   54.4934 H       1  ZINC000469435497    0.1400
     51 H51        -4.5889    2.7429   54.1391 H       1  ZINC000469435497    0.1300
@<TRIPOS>BOND
     1     1     2    1
     2     1    28    1
     3     1    29    1
     4     1    30    1
     5     2    27    1
     6     2     3    1
     7     2     4    1
     8     3    31    1
     9     3    32    1
    10     3    33    1
    11     4     5    1
    12     4    34    1
    13     4    35    1
    14     5    26   ar
    15     5     6   ar
    16     6     7   ar
    17     6    36    1
    18     7     8    1
    19     7    24   ar
    20     8     9   am
    21     8    37    1
    22     9    10    2
    23     9    11    1
    24    11    12    1
    25    11    38    1
    26    11    39    1
    27    12    13   am
    28    12    40    1
    29    13    14    2
    30    13    15    1
    31    15    23   ar
    32    15    16   ar
    33    16    17   ar
    34    16    41    1
    35    17    18   ar
    36    17    42    1
    37    18    22   ar
    38    18    19    1
    39    19    20    1
    40    19    43    1
    41    19    44    1
    42    20    21    1
    43    20    45    1
    44    20    46    1
    45    21    22    1
    46    21    47    1
    47    21    48    1
    48    22    23   ar
    49    23    49    1
    50    24    25   ar
    51    24    50    1
    52    25    26   ar
    53    25    51    1
    54    26    27    1
@<TRIPOS>SUBSTRUCTURE
     1 ZINC000469435497        1 TEMP              0 ****  ****    0 ROOT


##########                                Name:    ZINC001079355651
##########                DOCK_Rotatable_Bonds:                   5
##########                         Heavy_Atoms:                  25
##########                    Molecular_Weight:             353.851
##########                DOCK_Rotatable_Bonds:                   5
##########                       Formal_Charge:           0.0199997
##########                     HBond_Acceptors:                   5
##########                        HBond_Donors:                   1
##########                         Heavy_Atoms:                  25
##########                          Grid_Score:          -27.847355
##########                     Grid_vdw_energy:          -27.978294
##########                      Grid_es_energy:            0.130940
##########           Internal_energy_repulsive:            4.973102

@<TRIPOS>MOLECULE
ZINC001079355651
 45 47 1 0 0
SMALL
USER_CHARGES


@<TRIPOS>ATOM
      1 C1         -6.8573    0.9322   51.1029 C.3     1  ZINC001079355651   -0.1500
      2 C2         -6.6008    2.0290   50.0673 C.3     1  ZINC001079355651   -0.1000
      3 H3         -7.0928    1.7828   49.1264 H       1  ZINC001079355651    0.0900
      4 C4         -5.0841    2.2142   49.8469 C.3     1  ZINC001079355651    0.0300
      5 N5         -4.9085    3.6778   49.6629 N.3     1  ZINC001079355651   -0.5100
      6 C6         -3.5218    4.0798   49.9335 C.3     1  ZINC001079355651    0.1600
      7 C7         -2.6095    3.2980   49.0831 C.1     1  ZINC001079355651   -0.1400
      8 C8         -1.8819    2.6745   48.4049 C.1     1  ZINC001079355651   -0.1300
      9 C9         -0.9944    1.9138   47.5776 C.ar    1  ZINC001079355651    0.0300
     10 C10         0.3863    2.0204   47.7484 C.ar    1  ZINC001079355651   -0.0900
     11 C11         1.2369    1.2851   46.9482 C.ar    1  ZINC001079355651   -0.1000
     12 C12         0.7238    0.4434   45.9782 C.ar    1  ZINC001079355651   -0.1000
     13 C13        -0.6454    0.3330   45.8028 C.ar    1  ZINC001079355651   -0.0300
     14 Cl14       -1.2800   -0.7257   44.5821 Cl      1  ZINC001079355651   -0.0600
     15 C15        -1.5069    1.0588   46.6012 C.ar    1  ZINC001079355651   -0.0900
     16 C16        -5.8405    4.2839   50.6482 C.3     1  ZINC001079355651    0.0200
     17 C17        -7.1009    3.3901   50.5934 C.3     1  ZINC001079355651    0.1500
     18 H18        -7.5284    3.2769   51.5896 H       1  ZINC001079355651    0.1000
     19 N19        -8.0912    3.9624   49.6778 N.am    1  ZINC001079355651   -0.7100
     20 C20        -9.4062    3.7694   49.9013 C.2     1  ZINC001079355651    0.5600
     21 O21        -9.7705    3.1220   50.8629 O.2     1  ZINC001079355651   -0.5300
     22 C22       -10.4075    4.3467   48.9744 C.ar    1  ZINC001079355651   -0.0900
     23 C23       -11.7766    4.1644   49.1915 C.ar    1  ZINC001079355651   -0.1400
     24 C24       -12.6756    4.7203   48.3020 C.ar    1  ZINC001079355651    0.1000
     25 N25       -12.2577    5.4134   47.2615 N.ar    1  ZINC001079355651   -0.4700
     26 C26       -10.9767    5.6089   47.0202 C.ar    1  ZINC001079355651    0.1000
     27 C27       -10.0097    5.0937   47.8615 C.ar    1  ZINC001079355651   -0.1200
     28 H28        -7.9287    0.8477   51.2849 H       1  ZINC001079355651    0.0600
     29 H29        -6.4763   -0.0176   50.7281 H       1  ZINC001079355651    0.0700
     30 H30        -6.3496    1.1855   52.0337 H       1  ZINC001079355651    0.0600
     31 H31        -4.5285    1.8714   50.7198 H       1  ZINC001079355651    0.0600
     32 H32        -4.7613    1.6774   48.9549 H       1  ZINC001079355651    0.0900
     33 H33        -3.4021    5.1411   49.7152 H       1  ZINC001079355651    0.0700
     34 H34        -3.2882    3.8959   50.9821 H       1  ZINC001079355651    0.1100
     35 H35         0.7886    2.6775   48.5051 H       1  ZINC001079355651    0.1300
     36 H36         2.3057    1.3673   47.0796 H       1  ZINC001079355651    0.1400
     37 H37         1.3938   -0.1299   45.3545 H       1  ZINC001079355651    0.1400
     38 H38        -2.5746    0.9722   46.4639 H       1  ZINC001079355651    0.1400
     39 H39        -5.4033    4.2652   51.6465 H       1  ZINC001079355651    0.0600
     40 H40        -6.0873    5.3057   50.3595 H       1  ZINC001079355651    0.0900
     41 H41        -7.8004    4.4802   48.9109 H       1  ZINC001079355651    0.4000
     42 H42       -12.1262    3.5974   50.0416 H       1  ZINC001079355651    0.1400
     43 H43       -13.7352    4.5847   48.4609 H       1  ZINC001079355651    0.1600
     44 H44       -10.6792    6.1833   46.1553 H       1  ZINC001079355651    0.1700
     45 H45        -8.9618    5.2578   47.6576 H       1  ZINC001079355651    0.1500
@<TRIPOS>BOND
     1     1     2    1
     2     1    28    1
     3     1    29    1
     4     1    30    1
     5     2     3    1
     6     2    17    1
     7     2     4    1
     8     4     5    1
     9     4    31    1
    10     4    32    1
    11     5     6    1
    12     5    16    1
    13     6     7    1
    14     6    33    1
    15     6    34    1
    16     7     8    3
    17     8     9    1
    18     9    15   ar
    19     9    10   ar
    20    10    11   ar
    21    10    35    1
    22    11    12   ar
    23    11    36    1
    24    12    13   ar
    25    12    37    1
    26    13    14    1
    27    13    15   ar
    28    15    38    1
    29    16    17    1
    30    16    39    1
    31    16    40    1
    32    17    18    1
    33    17    19    1
    34    19    20   am
    35    19    41    1
    36    20    21    2
    37    20    22    1
    38    22    27   ar
    39    22    23   ar
    40    23    24   ar
    41    23    42    1
    42    24    25   ar
    43    24    43    1
    44    25    26   ar
    45    26    27   ar
    46    26    44    1
    47    27    45    1
@<TRIPOS>SUBSTRUCTURE
     1 ZINC001079355651        1 TEMP              0 ****  ****    0 ROOT


##########                                Name:    ZINC001345266033
##########                DOCK_Rotatable_Bonds:                   4
##########                         Heavy_Atoms:                  29
##########                    Molecular_Weight:               389.5
##########                DOCK_Rotatable_Bonds:                   4
##########                       Formal_Charge:          -0.0100001
##########                     HBond_Acceptors:                   6
##########                        HBond_Donors:                   0
##########                         Heavy_Atoms:                  29
##########                          Grid_Score:          -27.809923
##########                     Grid_vdw_energy:          -27.238201
##########                      Grid_es_energy:           -0.571722
##########           Internal_energy_repulsive:            9.215904

@<TRIPOS>MOLECULE
ZINC001345266033
 56 61 1 0 0
SMALL
USER_CHARGES


@<TRIPOS>ATOM
      1 C1        -14.9590   -1.4595   54.7204 C.ar    1  ZINC001345266033   -0.1100
      2 C2        -14.2507   -0.4897   55.4252 C.ar    1  ZINC001345266033   -0.0900
      3 C3        -13.3330   -0.8405   56.3723 C.ar    1  ZINC001345266033   -0.1100
      4 C4        -13.1028   -2.1925   56.6373 C.ar    1  ZINC001345266033    0.0000
      5 C5        -13.8226   -3.1840   55.9220 C.ar    1  ZINC001345266033   -0.1100
      6 C6        -14.7585   -2.7868   54.9545 C.ar    1  ZINC001345266033   -0.0900
      7 C7        -13.5720   -4.5357   56.2086 C.ar    1  ZINC001345266033    0.1700
      8 N8        -12.6919   -4.8795   57.1177 N.ar    1  ZINC001345266033   -0.4800
      9 C9        -11.9861   -4.0102   57.8215 C.ar    1  ZINC001345266033    0.0900
     10 C10       -12.1357   -2.6417   57.6381 C.ar    1  ZINC001345266033   -0.0700
     11 C11       -11.3465   -1.6751   58.4249 C.2     1  ZINC001345266033    0.2300
     12 N12       -10.5111   -0.7786   57.9505 N.2     1  ZINC001345266033   -0.2600
     13 N13        -9.9974   -0.1045   58.9166 N.2     1  ZINC001345266033   -0.3000
     14 C14       -10.4725   -0.5286   60.0660 C.2     1  ZINC001345266033    0.3600
     15 N15       -10.1473   -0.0393   61.3188 N.3     1  ZINC001345266033   -0.4600
     16 C16        -8.7945   -0.4535   61.7103 C.3     1  ZINC001345266033    0.0600
     17 C17        -8.5430   -0.0920   63.1755 C.3     1  ZINC001345266033   -0.1100
     18 C18        -8.6261    1.4302   63.3407 C.3     1  ZINC001345266033   -0.0800
     19 C19        -9.9721    1.9071   62.7845 C.3     1  ZINC001345266033   -0.1300
     20 C20       -11.1349    2.0526   63.7648 C.3     1  ZINC001345266033   -0.1600
     21 C21       -10.4570    3.2980   63.1892 C.3     1  ZINC001345266033   -0.1700
     22 C22       -10.2901    1.4234   61.3666 C.3     1  ZINC001345266033    0.1100
     23 N23       -11.3505   -1.5375   59.7944 N.pl3   1  ZINC001345266033   -0.4600
     24 C24       -12.1288   -2.3175   60.7600 C.3     1  ZINC001345266033    0.1000
     25 C25       -13.5594   -1.7779   60.8165 C.3     1  ZINC001345266033   -0.1400
     26 H26       -13.9806   -1.7107   59.8134 H       1  ZINC001345266033    0.1000
     27 C27       -13.5895   -0.3943   61.5105 C.3     1  ZINC001345266033   -0.1500
     28 C28       -14.8702   -0.4941   62.3780 C.3     1  ZINC001345266033    0.0500
     29 O29       -14.8671   -1.8666   62.8264 O.3     1  ZINC001345266033   -0.3700
     30 C30       -14.4383   -2.6723   61.7119 C.3     1  ZINC001345266033    0.0300
     31 H31       -15.6826   -1.1546   53.9789 H       1  ZINC001345266033    0.1300
     32 H32       -14.4299    0.5552   55.2191 H       1  ZINC001345266033    0.1300
     33 H33       -12.7892   -0.0794   56.9121 H       1  ZINC001345266033    0.1600
     34 H34       -15.3159   -3.5274   54.4003 H       1  ZINC001345266033    0.1400
     35 H35       -14.1118   -5.3026   55.6730 H       1  ZINC001345266033    0.1700
     36 H36       -11.2794   -4.3718   58.5539 H       1  ZINC001345266033    0.1700
     37 H37        -8.6942   -1.5311   61.5809 H       1  ZINC001345266033    0.0700
     38 H38        -8.0639    0.0550   61.0814 H       1  ZINC001345266033    0.0500
     39 H39        -9.2967   -0.5680   63.8027 H       1  ZINC001345266033    0.0800
     40 H40        -7.5520   -0.4366   63.4707 H       1  ZINC001345266033    0.0800
     41 H41        -8.5545    1.6884   64.3972 H       1  ZINC001345266033    0.0700
     42 H42        -7.8138    1.9033   62.7891 H       1  ZINC001345266033    0.0700
     43 H43       -12.1333    1.8094   63.4012 H       1  ZINC001345266033    0.0900
     44 H44       -10.9441    1.8138   64.8112 H       1  ZINC001345266033    0.0900
     45 H45        -9.8202    3.8786   63.8567 H       1  ZINC001345266033    0.1000
     46 H46       -11.0094    3.8742   62.4469 H       1  ZINC001345266033    0.1000
     47 H47        -9.5972    1.8812   60.6608 H       1  ZINC001345266033    0.0600
     48 H48       -11.3126    1.6990   61.1078 H       1  ZINC001345266033    0.0800
     49 H49       -12.1467   -3.3630   60.4523 H       1  ZINC001345266033    0.1100
     50 H50       -11.6708   -2.2366   61.7458 H       1  ZINC001345266033    0.1100
     51 H51       -12.7071   -0.2528   62.1344 H       1  ZINC001345266033    0.0800
     52 H52       -13.6782    0.4071   60.7769 H       1  ZINC001345266033    0.0900
     53 H53       -14.8128    0.1872   63.2269 H       1  ZINC001345266033    0.1000
     54 H54       -15.7569   -0.2882   61.7785 H       1  ZINC001345266033    0.0600
     55 H55       -15.3058   -3.0231   61.1529 H       1  ZINC001345266033    0.0600
     56 H56       -13.8576   -3.5221   62.0706 H       1  ZINC001345266033    0.0900
@<TRIPOS>BOND
     1     1     6   ar
     2     1     2   ar
     3     1    31    1
     4     2     3   ar
     5     2    32    1
     6     3     4   ar
     7     3    33    1
     8     4    10   ar
     9     4     5   ar
    10     5     6   ar
    11     5     7   ar
    12     6    34    1
    13     7     8   ar
    14     7    35    1
    15     8     9   ar
    16     9    10   ar
    17     9    36    1
    18    10    11    1
    19    11    23    1
    20    11    12    2
    21    12    13    1
    22    13    14    2
    23    14    15    1
    24    14    23    1
    25    15    22    1
    26    15    16    1
    27    16    17    1
    28    16    37    1
    29    16    38    1
    30    17    18    1
    31    17    39    1
    32    17    40    1
    33    18    19    1
    34    18    41    1
    35    18    42    1
    36    19    21    1
    37    19    20    1
    38    19    22    1
    39    20    21    1
    40    20    43    1
    41    20    44    1
    42    21    45    1
    43    21    46    1
    44    22    47    1
    45    22    48    1
    46    23    24    1
    47    24    25    1
    48    24    49    1
    49    24    50    1
    50    25    26    1
    51    25    30    1
    52    25    27    1
    53    27    28    1
    54    27    51    1
    55    27    52    1
    56    28    29    1
    57    28    53    1
    58    28    54    1
    59    29    30    1
    60    30    55    1
    61    30    56    1
@<TRIPOS>SUBSTRUCTURE
     1 ZINC001345266033        1 TEMP              0 ****  ****    0 ROOT


##########                                Name:    ZINC000618094467
##########                DOCK_Rotatable_Bonds:                   5
##########                         Heavy_Atoms:                  27
##########                    Molecular_Weight:             370.492
##########                DOCK_Rotatable_Bonds:                   5
##########                       Formal_Charge:                0.03
##########                     HBond_Acceptors:                   5
##########                        HBond_Donors:                   0
##########                         Heavy_Atoms:                  27
##########                          Grid_Score:          -27.801613
##########                     Grid_vdw_energy:          -26.510387
##########                      Grid_es_energy:           -1.291225
##########           Internal_energy_repulsive:          104.235504

@<TRIPOS>MOLECULE
ZINC000618094467
 57 59 1 0 0
SMALL
USER_CHARGES


@<TRIPOS>ATOM
      1 C1         -9.5127   -0.1456   62.4692 C.3     1  ZINC000618094467   -0.1500
      2 C2        -10.2147   -0.8684   61.3179 C.3     1  ZINC000618094467   -0.1000
      3 C3         -9.5573   -0.4765   59.9931 C.3     1  ZINC000618094467   -0.1100
      4 H4         -9.5293    0.6099   59.9088 H       1  ZINC000618094467    0.1000
      5 C5         -8.1308   -1.0283   59.9488 C.3     1  ZINC000618094467   -0.1500
      6 C6        -10.3530   -1.0489   58.8486 C.2     1  ZINC000618094467    0.5200
      7 O7        -11.0524   -2.0241   59.0242 O.2     1  ZINC000618094467   -0.5000
      8 N8        -10.2877   -0.4772   57.6298 N.am    1  ZINC000618094467   -0.6100
      9 C9         -9.4516    0.7028   57.3849 C.3     1  ZINC000618094467    0.1400
     10 C10        -8.6931    0.5285   56.0932 C.ar    1  ZINC000618094467   -0.1000
     11 C11        -7.6717    1.4264   55.8157 C.ar    1  ZINC000618094467   -0.1100
     12 C12        -6.9483    1.3246   54.6450 C.ar    1  ZINC000618094467   -0.1200
     13 C13        -7.2443    0.3212   53.7416 C.ar    1  ZINC000618094467   -0.1100
     14 C14        -8.2565   -0.5744   54.0182 C.ar    1  ZINC000618094467   -0.1200
     15 C15        -8.9825   -0.4779   55.1989 C.ar    1  ZINC000618094467   -0.0600
     16 C16       -10.0541   -1.5070   55.4457 C.3     1  ZINC000618094467   -0.0800
     17 C17       -11.0477   -1.0158   56.4898 C.3     1  ZINC000618094467    0.1200
     18 H18       -11.6715   -0.2298   56.0641 H       1  ZINC000618094467    0.1000
     19 C19       -11.9132   -2.1611   56.9482 C.2     1  ZINC000618094467    0.5500
     20 O20       -11.4304   -3.2633   57.0998 O.2     1  ZINC000618094467   -0.5200
     21 N21       -13.2239   -1.9606   57.1897 N.am    1  ZINC000618094467   -0.6100
     22 C22       -14.0740   -3.0692   57.6425 C.3     1  ZINC000618094467    0.1200
     23 C23       -14.7151   -2.6847   58.9820 C.3     1  ZINC000618094467   -0.1600
     24 H24       -15.4916   -3.4057   59.2376 H       1  ZINC000618094467    0.1100
     25 C25       -13.6475   -2.6673   60.0779 C.3     1  ZINC000618094467   -0.1400
     26 C26       -15.3249   -1.3072   58.8421 C.2     1  ZINC000618094467    0.3700
     27 O27       -16.4795   -1.1093   59.1358 O.2     1  ZINC000618094467   -0.4400
     28 C28       -14.4532   -0.1835   58.3260 C.3     1  ZINC000618094467   -0.1600
     29 H29       -13.6708    0.0372   59.0521 H       1  ZINC000618094467    0.1100
     30 C30       -15.3064    1.0649   58.0928 C.3     1  ZINC000618094467   -0.1400
     31 C31       -13.8174   -0.6294   57.0089 C.3     1  ZINC000618094467    0.1400
     32 H32        -9.5965    0.9319   62.3267 H       1  ZINC000618094467    0.0500
     33 H33        -9.9812   -0.4248   63.4129 H       1  ZINC000618094467    0.0600
     34 H34        -8.4603   -0.4288   62.4881 H       1  ZINC000618094467    0.0600
     35 H35       -10.1309   -1.9458   61.4603 H       1  ZINC000618094467    0.0700
     36 H36       -11.2671   -0.5852   61.2990 H       1  ZINC000618094467    0.0700
     37 H37        -8.1471   -2.0953   60.1704 H       1  ZINC000618094467    0.0700
     38 H38        -7.7108   -0.8698   58.9555 H       1  ZINC000618094467    0.0700
     39 H39        -7.5187   -0.5126   60.6887 H       1  ZINC000618094467    0.0700
     40 H40       -10.0843    1.5879   57.3172 H       1  ZINC000618094467    0.0900
     41 H41        -8.7458    0.8243   58.2066 H       1  ZINC000618094467    0.1100
     42 H42        -7.4418    2.2113   56.5212 H       1  ZINC000618094467    0.1300
     43 H43        -6.1543    2.0260   54.4353 H       1  ZINC000618094467    0.1300
     44 H44        -6.6848    0.2386   52.8215 H       1  ZINC000618094467    0.1200
     45 H45        -8.4868   -1.3571   53.3107 H       1  ZINC000618094467    0.1200
     46 H46       -10.5814   -1.7063   54.5127 H       1  ZINC000618094467    0.0900
     47 H47        -9.5915   -2.4286   55.7991 H       1  ZINC000618094467    0.1000
     48 H48       -14.8539   -3.2567   56.9046 H       1  ZINC000618094467    0.0700
     49 H49       -13.4673   -3.9656   57.7718 H       1  ZINC000618094467    0.0900
     50 H50       -12.9236   -1.8800   59.8676 H       1  ZINC000618094467    0.0600
     51 H51       -14.1197   -2.4787   61.0420 H       1  ZINC000618094467    0.0600
     52 H52       -13.1388   -3.6310   60.1049 H       1  ZINC000618094467    0.0700
     53 H53       -15.7697    1.3688   59.0314 H       1  ZINC000618094467    0.0700
     54 H54       -14.6752    1.8721   57.7211 H       1  ZINC000618094467    0.0700
     55 H55       -16.0820    0.8432   57.3598 H       1  ZINC000618094467    0.0600
     56 H56       -13.0429    0.0804   56.7183 H       1  ZINC000618094467    0.1100
     57 H57       -14.5809   -0.6784   56.2326 H       1  ZINC000618094467    0.0700
@<TRIPOS>BOND
     1     1     2    1
     2     1    32    1
     3     1    33    1
     4     1    34    1
     5     2     3    1
     6     2    35    1
     7     2    36    1
     8     3     4    1
     9     3     5    1
    10     3     6    1
    11     5    37    1
    12     5    38    1
    13     5    39    1
    14     6     7    2
    15     6     8   am
    16     8    17    1
    17     8     9    1
    18     9    10    1
    19     9    40    1
    20     9    41    1
    21    10    15   ar
    22    10    11   ar
    23    11    12   ar
    24    11    42    1
    25    12    13   ar
    26    12    43    1
    27    13    14   ar
    28    13    44    1
    29    14    15   ar
    30    14    45    1
    31    15    16    1
    32    16    17    1
    33    16    46    1
    34    16    47    1
    35    17    18    1
    36    17    19    1
    37    19    20    2
    38    19    21   am
    39    21    31    1
    40    21    22    1
    41    22    23    1
    42    22    48    1
    43    22    49    1
    44    23    24    1
    45    23    25    1
    46    23    26    1
    47    25    50    1
    48    25    51    1
    49    25    52    1
    50    26    27    2
    51    26    28    1
    52    28    29    1
    53    28    30    1
    54    28    31    1
    55    30    53    1
    56    30    54    1
    57    30    55    1
    58    31    56    1
    59    31    57    1
@<TRIPOS>SUBSTRUCTURE
     1 ZINC000618094467        1 TEMP              0 ****  ****    0 ROOT


##########                                Name:    ZINC001067560454
##########                DOCK_Rotatable_Bonds:                   4
##########                         Heavy_Atoms:                  25
##########                    Molecular_Weight:             342.444
##########                DOCK_Rotatable_Bonds:                   4
##########                       Formal_Charge:          0.00999971
##########                     HBond_Acceptors:                   7
##########                        HBond_Donors:                   1
##########                         Heavy_Atoms:                  25
##########                          Grid_Score:          -27.796272
##########                     Grid_vdw_energy:          -26.448782
##########                      Grid_es_energy:           -1.347491
##########           Internal_energy_repulsive:           12.191109

@<TRIPOS>MOLECULE
ZINC001067560454
 51 54 1 0 0
SMALL
USER_CHARGES


@<TRIPOS>ATOM
      1 C1         -7.3170   -0.6227   51.8955 C.3     1  ZINC001067560454   -0.1500
      2 C2         -7.8247    0.5422   52.7477 C.3     1  ZINC001067560454    0.1000
      3 H3         -8.7813    0.8885   52.3564 H       1  ZINC001067560454    0.0600
      4 C4         -8.0040    0.0756   54.1941 C.3     1  ZINC001067560454   -0.1200
      5 C5         -8.4929    1.2495   55.0470 C.3     1  ZINC001067560454    0.1400
      6 H6         -9.4648    1.5838   54.6838 H       1  ZINC001067560454    0.0900
      7 N7         -8.6123    0.8236   56.4437 N.am    1  ZINC001067560454   -0.7200
      8 C8         -9.7777    0.3216   56.8979 C.2     1  ZINC001067560454    0.5400
      9 O9        -10.7280    0.2237   56.1508 O.2     1  ZINC001067560454   -0.5300
     10 C10        -9.8999   -0.1182   58.3342 C.3     1  ZINC001067560454   -0.1100
     11 C11       -10.6587   -1.4377   58.4889 C.3     1  ZINC001067560454   -0.1300
     12 C12        -8.5710   -0.0753   59.1067 C.3     1  ZINC001067560454   -0.1200
     13 C13        -8.9178    1.3790   59.4668 C.3     1  ZINC001067560454   -0.1400
     14 C14       -10.3939    0.9909   59.2781 C.3     1  ZINC001067560454   -0.1200
     15 C15        -7.4859    2.3983   54.9453 C.3     1  ZINC001067560454   -0.1200
     16 C16        -7.3215    2.7977   53.4771 C.3     1  ZINC001067560454    0.0600
     17 N17        -6.8516    1.6410   52.7038 N.3     1  ZINC001067560454   -0.4900
     18 C18        -6.5676    1.9999   51.3978 C.ar    1  ZINC001067560454    0.4400
     19 C19        -5.2959    1.7653   50.8480 C.ar    1  ZINC001067560454   -0.0800
     20 N20        -4.1445    1.2206   51.3091 N.2     1  ZINC001067560454   -0.4700
     21 C21        -3.2458    1.2469   50.3682 C.2     1  ZINC001067560454    0.2700
     22 N22        -3.7667    1.8117   49.2422 N.pl3   1  ZINC001067560454   -0.4800
     23 C23        -3.0663    2.0179   47.9721 C.3     1  ZINC001067560454    0.0800
     24 C24        -5.0674    2.1512   49.5162 C.ar    1  ZINC001067560454    0.2800
     25 N25        -6.0538    2.7188   48.8300 N.ar    1  ZINC001067560454   -0.5200
     26 C26        -7.2300    2.9186   49.3865 C.ar    1  ZINC001067560454    0.3300
     27 N27        -7.4931    2.5694   50.6324 N.ar    1  ZINC001067560454   -0.5100
     28 H28        -6.3603   -0.9691   52.2865 H       1  ZINC001067560454    0.0700
     29 H29        -8.0394   -1.4382   51.9276 H       1  ZINC001067560454    0.0700
     30 H30        -7.1895   -0.2906   50.8652 H       1  ZINC001067560454    0.0500
     31 H31        -8.7380   -0.7296   54.2283 H       1  ZINC001067560454    0.0800
     32 H32        -7.0506   -0.2834   54.5816 H       1  ZINC001067560454    0.0800
     33 H33        -7.8526    0.9030   57.0415 H       1  ZINC001067560454    0.4000
     34 H34       -10.2380   -2.1804   57.8110 H       1  ZINC001067560454    0.0600
     35 H35       -10.5680   -1.7906   59.5162 H       1  ZINC001067560454    0.0700
     36 H36       -11.7107   -1.2821   58.2498 H       1  ZINC001067560454    0.0600
     37 H37        -8.5445   -0.7438   59.9672 H       1  ZINC001067560454    0.0900
     38 H38        -7.6920   -0.1695   58.4690 H       1  ZINC001067560454    0.0700
     39 H39        -8.6646    1.6471   60.4925 H       1  ZINC001067560454    0.0700
     40 H40        -8.5609    2.1064   58.7377 H       1  ZINC001067560454    0.0800
     41 H41       -10.9865    1.7574   58.7787 H       1  ZINC001067560454    0.0800
     42 H42       -10.8657    0.6139   60.1854 H       1  ZINC001067560454    0.0900
     43 H43        -7.8495    3.2527   55.5162 H       1  ZINC001067560454    0.0800
     44 H44        -6.5242    2.0758   55.3445 H       1  ZINC001067560454    0.0800
     45 H45        -8.2806    3.1331   53.0824 H       1  ZINC001067560454    0.0700
     46 H46        -6.5943    3.6059   53.3997 H       1  ZINC001067560454    0.0800
     47 H47        -2.2360    0.8762   50.4652 H       1  ZINC001067560454    0.2300
     48 H48        -3.2018    1.1431   47.3361 H       1  ZINC001067560454    0.0800
     49 H49        -3.4722    2.8971   47.4719 H       1  ZINC001067560454    0.0900
     50 H50        -2.0035    2.1669   48.1633 H       1  ZINC001067560454    0.0900
     51 H51        -8.0100    3.3824   48.8010 H       1  ZINC001067560454    0.2100
@<TRIPOS>BOND
     1     1     2    1
     2     1    28    1
     3     1    29    1
     4     1    30    1
     5     2     3    1
     6     2    17    1
     7     2     4    1
     8     4     5    1
     9     4    31    1
    10     4    32    1
    11     5     6    1
    12     5     7    1
    13     5    15    1
    14     7     8   am
    15     7    33    1
    16     8     9    2
    17     8    10    1
    18    10    14    1
    19    10    11    1
    20    10    12    1
    21    11    34    1
    22    11    35    1
    23    11    36    1
    24    12    13    1
    25    12    37    1
    26    12    38    1
    27    13    14    1
    28    13    39    1
    29    13    40    1
    30    14    41    1
    31    14    42    1
    32    15    16    1
    33    15    43    1
    34    15    44    1
    35    16    17    1
    36    16    45    1
    37    16    46    1
    38    17    18    1
    39    18    27   ar
    40    18    19   ar
    41    19    24   ar
    42    19    20    1
    43    20    21    2
    44    21    22    1
    45    21    47    1
    46    22    23    1
    47    22    24    1
    48    23    48    1
    49    23    49    1
    50    23    50    1
    51    24    25   ar
    52    25    26   ar
    53    26    27   ar
    54    26    51    1
@<TRIPOS>SUBSTRUCTURE
     1 ZINC001067560454        1 TEMP              0 ****  ****    0 ROOT


##########                                Name:    ZINC000013551438
##########                DOCK_Rotatable_Bonds:                   5
##########                         Heavy_Atoms:                  27
##########                    Molecular_Weight:             377.467
##########                DOCK_Rotatable_Bonds:                   5
##########                       Formal_Charge:          -0.0300005
##########                     HBond_Acceptors:                   6
##########                        HBond_Donors:                   1
##########                         Heavy_Atoms:                  27
##########                          Grid_Score:          -27.780981
##########                     Grid_vdw_energy:          -28.361183
##########                      Grid_es_energy:            0.580203
##########           Internal_energy_repulsive:           18.282413

@<TRIPOS>MOLECULE
ZINC000013551438
 46 49 1 0 0
SMALL
USER_CHARGES


@<TRIPOS>ATOM
      1 C1         -7.7895   -0.1533   64.0112 C.3     1  <0>         0.0300
      2 O2         -8.1574   -0.6943   62.7407 O.3     1  <0>        -0.3200
      3 C3         -9.4633   -0.5839   62.3775 C.ar    1  <0>         0.1000
      4 C4        -10.3818   -0.0155   63.2556 C.ar    1  <0>        -0.1800
      5 C5        -11.7078    0.1034   62.9029 C.ar    1  <0>        -0.0900
      6 C6        -12.1399   -0.3463   61.6595 C.ar    1  <0>         0.0700
      7 C7        -11.2139   -0.9200   60.7715 C.ar    1  <0>        -0.0400
      8 C8         -9.8726   -1.0311   61.1363 C.ar    1  <0>        -0.1100
      9 C9        -11.9768   -1.2859   59.5676 C.2     1  <0>        -0.1200
     10 C10       -11.4414   -1.9271   58.3416 C.2     1  <0>         0.1700
     11 C11       -11.7207   -3.1988   57.9993 C.2     1  <0>        -0.3000
     12 S12       -10.8887   -3.5516   56.4873 S.3     1  <0>         0.2500
     13 C13       -10.2462   -1.9682   56.4542 C.2     1  <0>         0.2400
     14 N14        -9.4140   -1.4716   55.4598 N.am    1  <0>        -0.6200
     15 C15        -8.6981   -0.3508   55.6778 C.2     1  <0>         0.5600
     16 O16        -8.7798    0.2246   56.7455 O.2     1  <0>        -0.5000
     17 C17        -7.8136    0.1788   54.6187 C.ar    1  <0>        -0.1400
     18 C18        -7.0423    1.3182   54.8544 C.ar    1  <0>        -0.0800
     19 C19        -6.2183    1.8070   53.8618 C.ar    1  <0>        -0.1300
     20 C20        -6.1555    1.1705   52.6349 C.ar    1  <0>        -0.0800
     21 C21        -6.9177    0.0411   52.3945 C.ar    1  <0>        -0.1300
     22 C22        -7.7414   -0.4616   53.3804 C.ar    1  <0>        -0.0500
     23 N23       -10.6502   -1.2951   57.4840 N.2     1  <0>        -0.5000
     24 C24       -13.2621   -0.9250   59.7951 C.2     1  <0>         0.1300
     25 C25       -14.4004   -1.1137   58.8256 C.3     1  <0>        -0.0900
     26 N26       -13.3715   -0.3643   61.0380 N.pl3   1  <0>        -0.4800
     27 C27       -14.6150    0.1423   61.6240 C.3     1  <0>         0.0800
     28 H28        -8.3553   -0.6539   64.7969 H       1  <0>         0.0500
     29 H29        -6.7232   -0.3076   64.1767 H       1  <0>         0.1000
     30 H30        -8.0092    0.9141   64.0289 H       1  <0>         0.0500
     31 H31       -10.0517    0.3349   64.2224 H       1  <0>         0.1300
     32 H32       -12.4122    0.5457   63.5919 H       1  <0>         0.1200
     33 H33        -9.1593   -1.4716   60.4554 H       1  <0>         0.1300
     34 H34       -12.3454   -3.8829   58.5545 H       1  <0>         0.1800
     35 H35        -9.3479   -1.9315   54.6083 H       1  <0>         0.4200
     36 H36        -7.0906    1.8161   55.8116 H       1  <0>         0.1300
     37 H37        -5.6213    2.6886   54.0426 H       1  <0>         0.1300
     38 H38        -5.5089    1.5574   51.8611 H       1  <0>         0.1300
     39 H39        -6.8643   -0.4507   51.4344 H       1  <0>         0.1300
     40 H40        -8.3356   -1.3434   53.1916 H       1  <0>         0.1400
     41 H41       -14.9201   -2.0446   59.0522 H       1  <0>         0.0800
     42 H42       -15.0954   -0.2787   58.9144 H       1  <0>         0.0700
     43 H43       -14.0090   -1.1541   57.8091 H       1  <0>         0.0800
     44 H44       -15.1117   -0.6590   62.1709 H       1  <0>         0.0700
     45 H45       -14.3878    0.9614   62.3062 H       1  <0>         0.0800
     46 H46       -15.2706    0.5014   60.8306 H       1  <0>         0.0800
@<TRIPOS>BOND
     1     1     2    1
     2     1    28    1
     3     1    29    1
     4     1    30    1
     5     2     3    1
     6     3     8   ar
     7     3     4   ar
     8     4     5   ar
     9     4    31    1
    10     5     6   ar
    11     5    32    1
    12     6    26    1
    13     6     7   ar
    14     7     8   ar
    15     7     9    1
    16     8    33    1
    17     9    10    1
    18     9    24    2
    19    10    23    1
    20    10    11    2
    21    11    12    1
    22    11    34    1
    23    12    13    1
    24    13    14    1
    25    13    23    2
    26    14    15   am
    27    14    35    1
    28    15    16    2
    29    15    17    1
    30    17    22   ar
    31    17    18   ar
    32    18    19   ar
    33    18    36    1
    34    19    20   ar
    35    19    37    1
    36    20    21   ar
    37    20    38    1
    38    21    22   ar
    39    21    39    1
    40    22    40    1
    41    24    25    1
    42    24    26    1
    43    25    41    1
    44    25    42    1
    45    25    43    1
    46    26    27    1
    47    27    44    1
    48    27    45    1
    49    27    46    1
@<TRIPOS>SUBSTRUCTURE
     1 <0>         1 TEMP              0 ****  ****    0 ROOT


##########                                Name:    ZINC000967287417
##########                DOCK_Rotatable_Bonds:                   7
##########                         Heavy_Atoms:                  25
##########                    Molecular_Weight:             347.414
##########                DOCK_Rotatable_Bonds:                   7
##########                       Formal_Charge:          -0.0200002
##########                     HBond_Acceptors:                   7
##########                        HBond_Donors:                   1
##########                         Heavy_Atoms:                  25
##########                          Grid_Score:          -27.776768
##########                     Grid_vdw_energy:          -26.786913
##########                      Grid_es_energy:           -0.989854
##########           Internal_energy_repulsive:            7.064771

@<TRIPOS>MOLECULE
ZINC000967287417
 50 52 1 0 0
SMALL
USER_CHARGES


@<TRIPOS>ATOM
      1 C1         -8.1836    1.0340   65.2107 C.3     1  ZINC000967287417    0.0300
      2 O2         -8.8773    0.6775   64.0132 O.3     1  ZINC000967287417   -0.3900
      3 C3         -8.4032   -0.5245   63.4028 C.3     1  ZINC000967287417    0.1400
      4 C4         -9.2103   -0.8103   62.1627 C.2     1  ZINC000967287417    0.0100
      5 C5         -8.7505   -1.4196   61.0477 C.2     1  ZINC000967287417   -0.1900
      6 C6         -9.8209   -1.4860   60.1420 C.2     1  ZINC000967287417   -0.1200
      7 C7        -10.8929   -0.9066   60.7581 C.2     1  ZINC000967287417   -0.0700
      8 C8        -12.2346   -0.7507   60.1869 C.2     1  ZINC000967287417    0.6100
      9 O9        -12.9604    0.1460   60.5743 O.2     1  ZINC000967287417   -0.5200
     10 N10       -12.6640   -1.6004   59.2330 N.am    1  ZINC000967287417   -0.7000
     11 C11       -14.0036   -1.4436   58.6611 C.3     1  ZINC000967287417    0.1600
     12 H12       -14.5776   -0.7415   59.2660 H       1  ZINC000967287417    0.1000
     13 C13       -13.8895   -0.9112   57.2309 C.3     1  ZINC000967287417    0.0400
     14 N14       -13.1335   -1.8662   56.4106 N.3     1  ZINC000967287417   -0.5300
     15 C15       -12.8849   -1.3253   55.0677 C.3     1  ZINC000967287417    0.1300
     16 C16       -11.4137   -1.0421   54.9047 C.2     1  ZINC000967287417    0.0200
     17 N17       -10.4814   -1.9028   54.6139 N.2     1  ZINC000967287417   -0.3500
     18 O18        -9.3943   -1.3772   54.5501 O.3     1  ZINC000967287417    0.1000
     19 C19        -9.4677   -0.0618   54.7975 C.2     1  ZINC000967287417   -0.0300
     20 C20        -8.3241    0.9197   54.8071 C.3     1  ZINC000967287417   -0.0800
     21 C21       -10.7735    0.2121   55.0313 C.2     1  ZINC000967287417   -0.2400
     22 C22       -13.8194   -3.1626   56.3372 C.3     1  ZINC000967287417    0.0500
     23 C23       -13.9314   -3.7621   57.7407 C.3     1  ZINC000967287417   -0.1100
     24 C24       -14.7130   -2.8003   58.6413 C.3     1  ZINC000967287417   -0.1000
     25 H25       -15.7238   -2.6772   58.2522 H       1  ZINC000967287417    0.0900
     26 C26       -14.7772   -3.3673   60.0610 C.3     1  ZINC000967287417   -0.1500
     27 O27       -10.5030   -0.5075   61.9865 O.3     1  ZINC000967287417   -0.1600
     28 H28        -7.1268    1.1815   64.9881 H       1  ZINC000967287417    0.0500
     29 H29        -8.6025    1.9567   65.6122 H       1  ZINC000967287417    0.0900
     30 H30        -8.2923    0.2358   65.9449 H       1  ZINC000967287417    0.0500
     31 H31        -7.3536   -0.4059   63.1339 H       1  ZINC000967287417    0.0900
     32 H32        -8.5074   -1.3532   64.1032 H       1  ZINC000967287417    0.0700
     33 H33        -7.7481   -1.7864   60.8840 H       1  ZINC000967287417    0.1600
     34 H34        -9.8005   -1.9126   59.1500 H       1  ZINC000967287417    0.1600
     35 H35       -12.0859   -2.3159   58.9250 H       1  ZINC000967287417    0.4100
     36 H36       -14.8870   -0.7816   56.8109 H       1  ZINC000967287417    0.0500
     37 H37       -13.3723    0.0483   57.2406 H       1  ZINC000967287417    0.0900
     38 H38       -13.2000   -2.0521   54.3190 H       1  ZINC000967287417    0.0600
     39 H39       -13.4491   -0.4018   54.9377 H       1  ZINC000967287417    0.0900
     40 H40        -7.3953    0.3975   54.5778 H       1  ZINC000967287417    0.0800
     41 H41        -8.5015    1.6915   54.0581 H       1  ZINC000967287417    0.0900
     42 H42        -8.2487    1.3799   55.7923 H       1  ZINC000967287417    0.0900
     43 H43       -11.2210    1.1664   55.2666 H       1  ZINC000967287417    0.1700
     44 H44       -14.8172   -3.0225   55.9214 H       1  ZINC000967287417    0.0400
     45 H45       -13.2513   -3.8383   55.6978 H       1  ZINC000967287417    0.0800
     46 H46       -14.4544   -4.7170   57.6879 H       1  ZINC000967287417    0.0700
     47 H47       -12.9336   -3.9154   58.1517 H       1  ZINC000967287417    0.0700
     48 H48       -13.7662   -3.4879   60.4500 H       1  ZINC000967287417    0.0600
     49 H49       -15.3335   -2.6823   60.7009 H       1  ZINC000967287417    0.0600
     50 H50       -15.2776   -4.3354   60.0433 H       1  ZINC000967287417    0.0600
@<TRIPOS>BOND
     1     1     2    1
     2     1    28    1
     3     1    29    1
     4     1    30    1
     5     2     3    1
     6     3     4    1
     7     3    31    1
     8     3    32    1
     9     4    27    1
    10     4     5    2
    11     5     6    1
    12     5    33    1
    13     6     7    2
    14     6    34    1
    15     7     8    1
    16     7    27    1
    17     8     9    2
    18     8    10   am
    19    10    11    1
    20    10    35    1
    21    11    12    1
    22    11    24    1
    23    11    13    1
    24    13    14    1
    25    13    36    1
    26    13    37    1
    27    14    15    1
    28    14    22    1
    29    15    16    1
    30    15    38    1
    31    15    39    1
    32    16    21    1
    33    16    17    2
    34    17    18    1
    35    18    19    1
    36    19    20    1
    37    19    21    2
    38    20    40    1
    39    20    41    1
    40    20    42    1
    41    21    43    1
    42    22    23    1
    43    22    44    1
    44    22    45    1
    45    23    24    1
    46    23    46    1
    47    23    47    1
    48    24    25    1
    49    24    26    1
    50    26    48    1
    51    26    49    1
    52    26    50    1
@<TRIPOS>SUBSTRUCTURE
     1 ZINC000967287417        1 TEMP              0 ****  ****    0 ROOT


##########                                Name:    ZINC000899027326
##########                DOCK_Rotatable_Bonds:                   5
##########                         Heavy_Atoms:                  22
##########                    Molecular_Weight:             346.169
##########                DOCK_Rotatable_Bonds:                   5
##########                       Formal_Charge:           0.0300005
##########                     HBond_Acceptors:                   9
##########                        HBond_Donors:                   1
##########                         Heavy_Atoms:                  22
##########                          Grid_Score:          -27.770065
##########                     Grid_vdw_energy:          -23.867472
##########                      Grid_es_energy:           -3.902595
##########           Internal_energy_repulsive:           19.003633

@<TRIPOS>MOLECULE
ZINC000899027326
 35 36 1 0 0
SMALL
USER_CHARGES


@<TRIPOS>ATOM
      1 C1          0.3939    0.4581   43.7043 C.3     1  ZINC000899027326   -0.1500
      2 C2         -0.7247    1.1154   44.5154 C.3     1  ZINC000899027326    0.1100
      3 H3         -1.5894    1.3148   43.8824 H       1  ZINC000899027326    0.1400
      4 C4         -1.1146    0.2420   45.6913 C.2     1  ZINC000899027326    0.5300
      5 O5         -1.5658   -0.8825   45.6505 O.2     1  ZINC000899027326   -0.4500
      6 N6         -0.8546    0.9753   46.7917 N.am    1  ZINC000899027326   -0.3700
      7 N7         -1.0745    0.5325   48.1026 N.am    1  ZINC000899027326   -0.5000
      8 C8         -2.2219    0.8463   48.7363 C.2     1  ZINC000899027326    0.5200
      9 O9         -3.0645    1.5107   48.1713 O.2     1  ZINC000899027326   -0.4800
     10 C10        -2.4577    0.3714   50.1470 C.3     1  ZINC000899027326    0.0500
     11 O11        -2.2864    1.4638   51.0522 O.3     1  ZINC000899027326   -0.2700
     12 C12        -3.3282    2.3276   51.1813 C.ar    1  ZINC000899027326    0.1400
     13 C13        -4.5194    2.0830   50.5153 C.ar    1  ZINC000899027326   -0.1900
     14 C14        -5.5774    2.9621   50.6477 C.ar    1  ZINC000899027326   -0.0600
     15 C15        -5.4491    4.0860   51.4439 C.ar    1  ZINC000899027326   -0.0600
     16 Cl16       -6.7803    5.1881   51.6086 Cl      1  ZINC000899027326   -0.0500
     17 C17        -4.2613    4.3327   52.1099 C.ar    1  ZINC000899027326   -0.0600
     18 C18        -3.2027    3.4530   51.9848 C.ar    1  ZINC000899027326   -0.0500
     19 Cl19       -1.7126    3.7623   52.8202 Cl      1  ZINC000899027326   -0.0300
     20 C20        -0.3598    2.1781   46.4777 C.2     1  ZINC000899027326    0.7000
     21 O21        -0.0486    3.0164   47.3008 O.2     1  ZINC000899027326   -0.5200
     22 N22        -0.2464    2.3578   45.1459 N.am    1  ZINC000899027326   -0.6200
     23 C23         0.2572    3.5524   44.4636 C.3     1  ZINC000899027326    0.1200
     24 H24         1.2440    0.2553   44.3556 H       1  ZINC000899027326    0.0700
     25 H25         0.0318   -0.4771   43.2775 H       1  ZINC000899027326    0.0900
     26 H26         0.7027    1.1281   42.9019 H       1  ZINC000899027326    0.0900
     27 H27        -0.4011    0.0000   48.5541 H       1  ZINC000899027326    0.4300
     28 H28        -3.4721   -0.0175   50.2347 H       1  ZINC000899027326    0.1100
     29 H29        -1.7443   -0.4164   50.3892 H       1  ZINC000899027326    0.1100
     30 H30        -4.6203    1.2060   49.8931 H       1  ZINC000899027326    0.1500
     31 H31        -6.5051    2.7718   50.1286 H       1  ZINC000899027326    0.1500
     32 H32        -4.1631    5.2106   52.7312 H       1  ZINC000899027326    0.1500
     33 H33         0.5372    4.3024   45.2033 H       1  ZINC000899027326    0.0900
     34 H34         1.1294    3.2887   43.8656 H       1  ZINC000899027326    0.0700
     35 H35        -0.5203    3.9550   43.8144 H       1  ZINC000899027326    0.0700
@<TRIPOS>BOND
     1     1     2    1
     2     1    24    1
     3     1    25    1
     4     1    26    1
     5     2     3    1
     6     2    22    1
     7     2     4    1
     8     4     5    2
     9     4     6   am
    10     6     7    1
    11     6    20   am
    12     7     8   am
    13     7    27    1
    14     8     9    2
    15     8    10    1
    16    10    11    1
    17    10    28    1
    18    10    29    1
    19    11    12    1
    20    12    18   ar
    21    12    13   ar
    22    13    14   ar
    23    13    30    1
    24    14    15   ar
    25    14    31    1
    26    15    16    1
    27    15    17   ar
    28    17    18   ar
    29    17    32    1
    30    18    19    1
    31    20    21    2
    32    20    22   am
    33    22    23    1
    34    23    33    1
    35    23    34    1
    36    23    35    1
@<TRIPOS>SUBSTRUCTURE
     1 ZINC000899027326        1 TEMP              0 ****  ****    0 ROOT


##########                                Name:    ZINC000979274057
##########                DOCK_Rotatable_Bonds:                   6
##########                         Heavy_Atoms:                  24
##########                    Molecular_Weight:              330.39
##########                DOCK_Rotatable_Bonds:                   6
##########                       Formal_Charge:          0.00999946
##########                     HBond_Acceptors:                   8
##########                        HBond_Donors:                   1
##########                         Heavy_Atoms:                  24
##########                          Grid_Score:          -27.762688
##########                     Grid_vdw_energy:          -27.645113
##########                      Grid_es_energy:           -0.117574
##########           Internal_energy_repulsive:            7.234877

@<TRIPOS>MOLECULE
ZINC000979274057
 46 48 1 0 0
SMALL
USER_CHARGES


@<TRIPOS>ATOM
      1 C1         -1.9072    3.6116   50.8999 C.3     1  ZINC000979274057   -0.1400
      2 C2         -2.6377    2.3995   50.3189 C.3     1  ZINC000979274057    0.1000
      3 H3         -2.2832    1.4925   50.8086 H       1  ZINC000979274057    0.0600
      4 N4         -2.3725    2.3127   48.8766 N.3     1  ZINC000979274057   -0.6700
      5 C5         -1.8615    0.9840   48.5143 C.3     1  ZINC000979274057    0.1300
      6 C6         -1.2663    1.0347   47.1307 C.ar    1  ZINC000979274057    0.3200
      7 N7         -0.7091    2.1537   46.7128 N.ar    1  ZINC000979274057   -0.5200
      8 C8         -0.1763    2.2356   45.5043 C.ar    1  ZINC000979274057    0.1500
      9 C9         -0.2100    1.1248   44.6760 C.ar    1  ZINC000979274057   -0.2300
     10 C10        -0.8044   -0.0337   45.1507 C.ar    1  ZINC000979274057    0.1500
     11 N11        -1.3118   -0.0426   46.3729 N.ar    1  ZINC000979274057   -0.5000
     12 C12        -4.1422    2.5505   50.5525 C.3     1  ZINC000979274057    0.0800
     13 H13        -4.3282    3.4280   51.1718 H       1  ZINC000979274057    0.0700
     14 C14        -4.6783    1.3011   51.2608 C.3     1  ZINC000979274057    0.0800
     15 N15        -6.1466    1.3870   51.3053 N.am    1  ZINC000979274057   -0.6000
     16 C16        -6.8175    1.2063   52.4602 C.2     1  ZINC000979274057    0.6100
     17 O17        -6.2091    0.9680   53.4860 O.2     1  ZINC000979274057   -0.5400
     18 C18        -8.2878    1.2975   52.4801 C.2     1  ZINC000979274057   -0.0600
     19 C19        -9.1617    0.3127   52.1234 C.2     1  ZINC000979274057    0.0400
     20 N20       -10.4081    0.8137   52.2915 N.pl3   1  ZINC000979274057   -0.4600
     21 C21       -11.6652    0.1079   52.0313 C.3     1  ZINC000979274057    0.0700
     22 C22       -10.2841    2.0881   52.7452 C.2     1  ZINC000979274057    0.1900
     23 N23        -9.0198    2.3750   52.8625 N.2     1  ZINC000979274057   -0.4600
     24 C24        -6.8609    1.6764   50.0518 C.3     1  ZINC000979274057    0.0500
     25 C25        -6.2184    2.9075   49.4024 C.3     1  ZINC000979274057    0.0500
     26 O26        -4.8076    2.7026   49.2964 O.3     1  ZINC000979274057   -0.3600
     27 H27        -0.8353    3.5040   50.7334 H       1  ZINC000979274057    0.0600
     28 H28        -2.2616    4.5186   50.4101 H       1  ZINC000979274057    0.0700
     29 H29        -2.1039    3.6760   51.9700 H       1  ZINC000979274057    0.0600
     30 H30        -3.1979    2.5406   48.3428 H       1  ZINC000979274057    0.3500
     31 H31        -1.0954    0.6821   49.2286 H       1  ZINC000979274057    0.1000
     32 H32        -2.6789    0.2631   48.5320 H       1  ZINC000979274057    0.0600
     33 H33         0.2783    3.1556   45.1679 H       1  ZINC000979274057    0.1700
     34 H34         0.2163    1.1614   43.6844 H       1  ZINC000979274057    0.1500
     35 H35        -0.8494   -0.9184   44.5331 H       1  ZINC000979274057    0.1700
     36 H36        -4.3793    0.4097   50.7094 H       1  ZINC000979274057    0.0700
     37 H37        -4.2824    1.2559   52.2753 H       1  ZINC000979274057    0.1000
     38 H38        -8.9080   -0.6770   51.7735 H       1  ZINC000979274057    0.1900
     39 H39       -11.9846   -0.4110   52.9352 H       1  ZINC000979274057    0.0800
     40 H40       -12.4302    0.8255   51.7347 H       1  ZINC000979274057    0.0900
     41 H41       -11.5164   -0.6162   51.2303 H       1  ZINC000979274057    0.0900
     42 H42       -11.1024    2.7543   52.9754 H       1  ZINC000979274057    0.2100
     43 H43        -6.7817    0.8228   49.3785 H       1  ZINC000979274057    0.0700
     44 H44        -7.9102    1.8797   50.2656 H       1  ZINC000979274057    0.1500
     45 H45        -6.6403    3.0568   48.4084 H       1  ZINC000979274057    0.1100
     46 H46        -6.4128    3.7864   50.0170 H       1  ZINC000979274057    0.0500
@<TRIPOS>BOND
     1     1     2    1
     2     1    27    1
     3     1    28    1
     4     1    29    1
     5     2     3    1
     6     2     4    1
     7     2    12    1
     8     4     5    1
     9     4    30    1
    10     5     6    1
    11     5    31    1
    12     5    32    1
    13     6    11   ar
    14     6     7   ar
    15     7     8   ar
    16     8     9   ar
    17     8    33    1
    18     9    10   ar
    19     9    34    1
    20    10    11   ar
    21    10    35    1
    22    12    13    1
    23    12    26    1
    24    12    14    1
    25    14    15    1
    26    14    36    1
    27    14    37    1
    28    15    16   am
    29    15    24    1
    30    16    17    2
    31    16    18    1
    32    18    23    1
    33    18    19    2
    34    19    20    1
    35    19    38    1
    36    20    21    1
    37    20    22    1
    38    21    39    1
    39    21    40    1
    40    21    41    1
    41    22    23    2
    42    22    42    1
    43    24    25    1
    44    24    43    1
    45    24    44    1
    46    25    26    1
    47    25    45    1
    48    25    46    1
@<TRIPOS>SUBSTRUCTURE
     1 ZINC000979274057        1 TEMP              0 ****  ****    0 ROOT


##########                                Name:    ZINC000274267583
##########                DOCK_Rotatable_Bonds:                   5
##########                         Heavy_Atoms:                  24
##########                    Molecular_Weight:             349.407
##########                DOCK_Rotatable_Bonds:                   5
##########                       Formal_Charge:           0.0300001
##########                     HBond_Acceptors:                   7
##########                        HBond_Donors:                   1
##########                         Heavy_Atoms:                  24
##########                          Grid_Score:          -27.744898
##########                     Grid_vdw_energy:          -26.981903
##########                      Grid_es_energy:           -0.762994
##########           Internal_energy_repulsive:           15.871696

@<TRIPOS>MOLECULE
ZINC000274267583
 43 45 1 0 0
SMALL
USER_CHARGES


@<TRIPOS>ATOM
      1 C1         -5.5516    1.3368   49.9756 C.3     1  ZINC000274267583    0.0200
      2 O2         -6.6657    2.0920   50.4555 O.3     1  ZINC000274267583   -0.3100
      3 C3         -7.4966    1.4742   51.3358 C.ar    1  ZINC000274267583    0.1900
      4 C4         -8.6259    2.1306   51.8033 C.ar    1  ZINC000274267583   -0.2300
      5 C5         -9.4692    1.5002   52.6977 C.ar    1  ZINC000274267583    0.0300
      6 C6         -9.1882    0.2164   53.1274 C.ar    1  ZINC000274267583   -0.7200
      7 S7        -10.2654   -0.5845   54.2687 S.o2    1  ZINC000274267583    2.7000
      8 O8        -11.5875   -0.3569   53.8002 O.2     1  ZINC000274267583   -0.9500
      9 O9         -9.7295   -1.8832   54.4826 O.2     1  ZINC000274267583   -0.9500
     10 N10       -10.1358    0.2182   55.7113 N.am    1  ZINC000274267583   -1.1100
     11 C11        -8.8402    0.2996   56.3905 C.3     1  ZINC000274267583    0.2100
     12 H12        -8.0808   -0.1923   55.7829 H       1  ZINC000274267583    0.1000
     13 C13        -8.4608    1.7692   56.5888 C.3     1  ZINC000274267583   -0.1800
     14 C14        -7.2663    1.8332   57.5492 C.3     1  ZINC000274267583    0.0600
     15 O15        -7.6866    1.3445   58.8238 O.3     1  ZINC000274267583   -0.3100
     16 C16        -8.3528    0.1601   58.8616 C.ar    1  ZINC000274267583    0.1100
     17 C17        -8.4470   -0.5082   60.0777 C.ar    1  ZINC000274267583   -0.1100
     18 C18        -9.1187   -1.7108   60.1607 C.ar    1  ZINC000274267583   -0.1600
     19 C19        -9.7030   -2.2559   59.0274 C.ar    1  ZINC000274267583    0.0900
     20 O20       -10.3681   -3.4394   59.1059 O.3     1  ZINC000274267583   -0.3200
     21 C21       -10.9550   -3.9349   57.9009 C.3     1  ZINC000274267583    0.0300
     22 C22        -9.6080   -1.5921   57.8147 C.ar    1  ZINC000274267583   -0.1000
     23 C23        -8.9323   -0.3857   57.7303 C.ar    1  ZINC000274267583   -0.1400
     24 C24        -8.0636   -0.4401   52.6626 C.ar    1  ZINC000274267583    0.0200
     25 C25        -7.2199    0.1840   51.7641 C.ar    1  ZINC000274267583   -0.1700
     26 H26        -4.9224    1.0436   50.8160 H       1  ZINC000274267583    0.0600
     27 H27        -5.9112    0.4449   49.4624 H       1  ZINC000274267583    0.0600
     28 H28        -4.9714    1.9457   49.2823 H       1  ZINC000274267583    0.1100
     29 H29        -8.8454    3.1336   51.4685 H       1  ZINC000274267583    0.1400
     30 H30       -10.3484    2.0108   53.0619 H       1  ZINC000274267583    0.1400
     31 H31       -10.9177    0.6345   56.1067 H       1  ZINC000274267583    0.4200
     32 H32        -8.1858    2.2101   55.6307 H       1  ZINC000274267583    0.1000
     33 H33        -9.3043    2.3121   57.0150 H       1  ZINC000274267583    0.0900
     34 H34        -6.4549    1.2133   57.1678 H       1  ZINC000274267583    0.0700
     35 H35        -6.9272    2.8646   57.6451 H       1  ZINC000274267583    0.1200
     36 H36        -7.9922   -0.0843   60.9607 H       1  ZINC000274267583    0.1400
     37 H37        -9.1889   -2.2268   61.1069 H       1  ZINC000274267583    0.1400
     38 H38       -11.6828   -3.2142   57.5280 H       1  ZINC000274267583    0.0600
     39 H39       -10.1766   -4.0854   57.1528 H       1  ZINC000274267583    0.0600
     40 H40       -11.4533   -4.8831   58.1027 H       1  ZINC000274267583    0.1000
     41 H41       -10.0628   -2.0169   56.9321 H       1  ZINC000274267583    0.1300
     42 H42        -7.8464   -1.4430   52.9995 H       1  ZINC000274267583    0.1500
     43 H43        -6.3417   -0.3292   51.4013 H       1  ZINC000274267583    0.1400
@<TRIPOS>BOND
     1     1     2    1
     2     1    26    1
     3     1    27    1
     4     1    28    1
     5     2     3    1
     6     3    25   ar
     7     3     4   ar
     8     4     5   ar
     9     4    29    1
    10     5     6   ar
    11     5    30    1
    12     6     7    1
    13     6    24   ar
    14     7     8    2
    15     7     9    2
    16     7    10   am
    17    10    11    1
    18    10    31    1
    19    11    12    1
    20    11    23    1
    21    11    13    1
    22    13    14    1
    23    13    32    1
    24    13    33    1
    25    14    15    1
    26    14    34    1
    27    14    35    1
    28    15    16    1
    29    16    23   ar
    30    16    17   ar
    31    17    18   ar
    32    17    36    1
    33    18    19   ar
    34    18    37    1
    35    19    20    1
    36    19    22   ar
    37    20    21    1
    38    21    38    1
    39    21    39    1
    40    21    40    1
    41    22    23   ar
    42    22    41    1
    43    24    25   ar
    44    24    42    1
    45    25    43    1
@<TRIPOS>SUBSTRUCTURE
     1 ZINC000274267583        1 TEMP              0 ****  ****    0 ROOT


##########                                Name:    ZINC000225856071
##########                DOCK_Rotatable_Bonds:                   6
##########                         Heavy_Atoms:                  29
##########                    Molecular_Weight:             409.549
##########                DOCK_Rotatable_Bonds:                   6
##########                       Formal_Charge:         -0.00999989
##########                     HBond_Acceptors:                   5
##########                        HBond_Donors:                   1
##########                         Heavy_Atoms:                  29
##########                          Grid_Score:          -27.735081
##########                     Grid_vdw_energy:          -27.862099
##########                      Grid_es_energy:            0.127018
##########           Internal_energy_repulsive:           28.417645

@<TRIPOS>MOLECULE
ZINC000225856071
 56 58 1 0 0
SMALL
USER_CHARGES


@<TRIPOS>ATOM
      1 C1         -6.8975    0.2729   53.0304 C.3     1  ZINC000225856071    0.0200
      2 O2         -8.1451    0.6830   53.5935 O.3     1  ZINC000225856071   -0.3100
      3 C3         -8.3087    0.4999   54.9302 C.ar    1  ZINC000225856071    0.1900
      4 C4         -7.6708    1.3412   55.8297 C.ar    1  ZINC000225856071   -0.2300
      5 C5         -7.8391    1.1533   57.1882 C.ar    1  ZINC000225856071    0.0700
      6 C6         -7.1464    2.0670   58.1661 C.3     1  ZINC000225856071   -0.1800
      7 C7         -8.6427    0.1281   57.6511 C.ar    1  ZINC000225856071   -0.7100
      8 S8         -8.8558   -0.1086   59.3840 S.o2    1  ZINC000225856071    2.7000
      9 O9         -7.7278   -0.8492   59.8295 O.2     1  ZINC000225856071   -0.9600
     10 O10        -9.2159    1.1570   59.9205 O.2     1  ZINC000225856071   -0.9500
     11 N11       -10.1716   -1.0936   59.5861 N.am    1  ZINC000225856071   -1.1100
     12 C12       -11.4836   -0.6750   59.0863 C.3     1  ZINC000225856071    0.2400
     13 H13       -11.3611    0.1671   58.4052 H       1  ZINC000225856071    0.1100
     14 C14       -12.3540   -0.2617   60.2449 C.ar    1  ZINC000225856071   -0.1000
     15 C15       -13.1026   -1.2082   60.9192 C.ar    1  ZINC000225856071   -0.1000
     16 C16       -13.9010   -0.8290   61.9820 C.ar    1  ZINC000225856071   -0.1200
     17 C17       -13.9505    0.4967   62.3709 C.ar    1  ZINC000225856071   -0.1100
     18 C18       -13.2012    1.4430   61.6972 C.ar    1  ZINC000225856071   -0.1100
     19 C19       -12.3994    1.0632   60.6371 C.ar    1  ZINC000225856071   -0.1000
     20 C20       -12.1319   -1.8222   58.3551 C.ar    1  ZINC000225856071   -0.0900
     21 C21       -11.6512   -3.1074   58.5211 C.ar    1  ZINC000225856071   -0.1000
     22 C22       -12.2462   -4.1599   57.8502 C.ar    1  ZINC000225856071   -0.1200
     23 C23       -13.3217   -3.9269   57.0141 C.ar    1  ZINC000225856071   -0.0800
     24 C24       -13.9697   -5.0740   56.2825 C.3     1  ZINC000225856071   -0.1200
     25 C25       -13.8033   -2.6414   56.8491 C.ar    1  ZINC000225856071   -0.1200
     26 C26       -13.2111   -1.5899   57.5227 C.ar    1  ZINC000225856071   -0.0600
     27 C27       -13.7361   -0.1887   57.3430 C.3     1  ZINC000225856071   -0.1300
     28 C28        -9.2801   -0.7118   56.7562 C.ar    1  ZINC000225856071    0.0200
     29 C29        -9.1186   -0.5254   55.3971 C.ar    1  ZINC000225856071   -0.1400
     30 C30        -9.8138   -1.4408   54.4225 C.3     1  ZINC000225856071   -0.1100
     31 H31        -6.7560   -0.7947   53.1992 H       1  ZINC000225856071    0.0600
     32 H32        -6.8986    0.4742   51.9591 H       1  ZINC000225856071    0.1000
     33 H33        -6.0860    0.8262   53.5032 H       1  ZINC000225856071    0.0600
     34 H34        -7.0429    2.1423   55.4686 H       1  ZINC000225856071    0.1400
     35 H35        -7.7948    2.9127   58.3952 H       1  ZINC000225856071    0.0900
     36 H36        -6.9266    1.5190   59.0823 H       1  ZINC000225856071    0.1000
     37 H37        -6.2167    2.4302   57.7282 H       1  ZINC000225856071    0.0800
     38 H38       -10.0736   -1.9477   60.0353 H       1  ZINC000225856071    0.4200
     39 H39       -13.0639   -2.2438   60.6154 H       1  ZINC000225856071    0.1200
     40 H40       -14.4865   -1.5684   62.5083 H       1  ZINC000225856071    0.1200
     41 H41       -14.5749    0.7930   63.2008 H       1  ZINC000225856071    0.1200
     42 H42       -13.2401    2.4787   62.0008 H       1  ZINC000225856071    0.1200
     43 H43       -11.8140    1.8025   60.1108 H       1  ZINC000225856071    0.1200
     44 H44       -10.8108   -3.2895   59.1745 H       1  ZINC000225856071    0.1200
     45 H45       -11.8701   -5.1641   57.9794 H       1  ZINC000225856071    0.1200
     46 H46       -14.7696   -5.4901   56.8951 H       1  ZINC000225856071    0.0700
     47 H47       -14.3830   -4.7164   55.3394 H       1  ZINC000225856071    0.0700
     48 H48       -13.2254   -5.8452   56.0840 H       1  ZINC000225856071    0.0700
     49 H49       -14.6440   -2.4595   56.1961 H       1  ZINC000225856071    0.1200
     50 H50       -14.5080    0.0083   58.0869 H       1  ZINC000225856071    0.0800
     51 H51       -12.9206    0.5237   57.4680 H       1  ZINC000225856071    0.0700
     52 H52       -14.1593   -0.0847   56.3439 H       1  ZINC000225856071    0.0700
     53 H53        -9.9078   -1.5118   57.1203 H       1  ZINC000225856071    0.1500
     54 H54       -10.7944   -1.0328   54.1771 H       1  ZINC000225856071    0.0700
     55 H55        -9.2175   -1.5245   53.5140 H       1  ZINC000225856071    0.0700
     56 H56        -9.9325   -2.4269   54.8715 H       1  ZINC000225856071    0.0700
@<TRIPOS>BOND
     1     1     2    1
     2     1    31    1
     3     1    32    1
     4     1    33    1
     5     2     3    1
     6     3    29   ar
     7     3     4   ar
     8     4     5   ar
     9     4    34    1
    10     5     6    1
    11     5     7   ar
    12     6    35    1
    13     6    36    1
    14     6    37    1
    15     7     8    1
    16     7    28   ar
    17     8     9    2
    18     8    10    2
    19     8    11   am
    20    11    12    1
    21    11    38    1
    22    12    13    1
    23    12    14    1
    24    12    20    1
    25    14    19   ar
    26    14    15   ar
    27    15    16   ar
    28    15    39    1
    29    16    17   ar
    30    16    40    1
    31    17    18   ar
    32    17    41    1
    33    18    19   ar
    34    18    42    1
    35    19    43    1
    36    20    26   ar
    37    20    21   ar
    38    21    22   ar
    39    21    44    1
    40    22    23   ar
    41    22    45    1
    42    23    24    1
    43    23    25   ar
    44    24    46    1
    45    24    47    1
    46    24    48    1
    47    25    26   ar
    48    25    49    1
    49    26    27    1
    50    27    50    1
    51    27    51    1
    52    27    52    1
    53    28    29   ar
    54    28    53    1
    55    29    30    1
    56    30    54    1
    57    30    55    1
    58    30    56    1
@<TRIPOS>SUBSTRUCTURE
     1 ZINC000225856071        1 TEMP              0 ****  ****    0 ROOT


##########                                Name:    ZINC000057429281
##########                DOCK_Rotatable_Bonds:                  10
##########                         Heavy_Atoms:                  23
##########                    Molecular_Weight:             331.295
##########                DOCK_Rotatable_Bonds:                  10
##########                       Formal_Charge:          -0.0100002
##########                     HBond_Acceptors:                   9
##########                        HBond_Donors:                   5
##########                         Heavy_Atoms:                  23
##########                          Grid_Score:          -27.711794
##########                     Grid_vdw_energy:          -26.414860
##########                      Grid_es_energy:           -1.296934
##########           Internal_energy_repulsive:           10.090049

@<TRIPOS>MOLECULE
ZINC000057429281
 39 39 1 0 0
SMALL
USER_CHARGES


@<TRIPOS>ATOM
      1 C1         -2.8254    3.7724   49.7078 C.3     1  ZINC000057429281   -0.1500
      2 C2         -3.1508    2.3568   49.2270 C.3     1  ZINC000057429281   -0.0400
      3 H3         -4.1498    2.3418   48.7912 H       1  ZINC000057429281    0.0900
      4 C4         -3.0967    1.3906   50.4119 C.3     1  ZINC000057429281   -0.1300
      5 C5         -4.3494    1.5368   51.2369 C.2     1  ZINC000057429281    0.5200
      6 O6         -4.3523    2.2576   52.2122 O.2     1  ZINC000057429281   -0.5300
      7 N7         -5.4663    0.8666   50.8909 N.am    1  ZINC000057429281   -0.7000
      8 C8         -6.6835    1.0073   51.6939 C.3     1  ZINC000057429281    0.1100
      9 C9         -7.5751    2.0532   51.0755 C.2     1  ZINC000057429281    0.5200
     10 N10        -7.4862    2.3206   49.7576 N.am    1  ZINC000057429281   -0.8500
     11 O11        -8.3724    2.6543   51.7639 O.2     1  ZINC000057429281   -0.5100
     12 C12        -7.4116   -0.3114   51.7378 C.2     1  ZINC000057429281    0.5300
     13 N13        -8.7433   -0.3393   51.9439 N.am    1  ZINC000057429281   -0.8400
     14 O14        -6.7994   -1.3474   51.5877 O.2     1  ZINC000057429281   -0.5100
     15 C15        -2.1435    1.9352   48.1885 C.ar    1  ZINC000057429281   -0.0500
     16 C16        -0.8828    1.5214   48.5764 C.ar    1  ZINC000057429281   -0.1200
     17 C17         0.0413    1.1345   47.6238 C.ar    1  ZINC000057429281   -0.0700
     18 C18        -0.2955    1.1611   46.2834 C.ar    1  ZINC000057429281   -0.1900
     19 C19         0.7120    0.7397   45.2448 C.3     1  ZINC000057429281    0.5100
     20 F20         1.6256   -0.1524   45.8162 F       1  ZINC000057429281   -0.1800
     21 F21         0.0520    0.1143   44.1816 F       1  ZINC000057429281   -0.1800
     22 F22         1.3937    1.8665   44.7724 F       1  ZINC000057429281   -0.1800
     23 C23        -1.5566    1.5735   45.8956 C.ar    1  ZINC000057429281   -0.0700
     24 C24        -2.4819    1.9567   46.8484 C.ar    1  ZINC000057429281   -0.1100
     25 H25        -2.8640    4.4608   48.8637 H       1  ZINC000057429281    0.0600
     26 H26        -3.5541    4.0774   50.4590 H       1  ZINC000057429281    0.0800
     27 H27        -1.8264    3.7875   50.1436 H       1  ZINC000057429281    0.0500
     28 H28        -3.0217    0.3676   50.0434 H       1  ZINC000057429281    0.1000
     29 H29        -2.2272    1.6195   51.0280 H       1  ZINC000057429281    0.1000
     30 H30        -5.4642    0.2910   50.1101 H       1  ZINC000057429281    0.4200
     31 H31        -6.4175    1.3094   52.7068 H       1  ZINC000057429281    0.1300
     32 H32        -8.0600    2.9938   49.3594 H       1  ZINC000057429281    0.4000
     33 H33        -6.8483    1.8400   49.2072 H       1  ZINC000057429281    0.4100
     34 H34        -9.2120   -1.1881   51.9721 H       1  ZINC000057429281    0.4000
     35 H35        -9.2329    0.4894   52.0639 H       1  ZINC000057429281    0.4100
     36 H36        -0.6197    1.5006   49.6237 H       1  ZINC000057429281    0.1400
     37 H37         1.0263    0.8119   47.9268 H       1  ZINC000057429281    0.1400
     38 H38        -1.8198    1.5939   44.8483 H       1  ZINC000057429281    0.1400
     39 H39        -3.4671    2.2789   46.5454 H       1  ZINC000057429281    0.1400
@<TRIPOS>BOND
     1     1     2    1
     2     1    25    1
     3     1    26    1
     4     1    27    1
     5     2     3    1
     6     2     4    1
     7     2    15    1
     8     4     5    1
     9     4    28    1
    10     4    29    1
    11     5     6    2
    12     5     7   am
    13     7     8    1
    14     7    30    1
    15     8     9    1
    16     8    12    1
    17     8    31    1
    18     9    10   am
    19     9    11    2
    20    10    32    1
    21    10    33    1
    22    12    13   am
    23    12    14    2
    24    13    34    1
    25    13    35    1
    26    15    24   ar
    27    15    16   ar
    28    16    17   ar
    29    16    36    1
    30    17    18   ar
    31    17    37    1
    32    18    19    1
    33    18    23   ar
    34    19    20    1
    35    19    21    1
    36    19    22    1
    37    23    24   ar
    38    23    38    1
    39    24    39    1
@<TRIPOS>SUBSTRUCTURE
     1 ZINC000057429281        1 TEMP              0 ****  ****    0 ROOT


##########                                Name:    ZINC000012087388
##########                DOCK_Rotatable_Bonds:                   5
##########                         Heavy_Atoms:                  29
##########                    Molecular_Weight:              418.52
##########                DOCK_Rotatable_Bonds:                   5
##########                       Formal_Charge:          -0.0499999
##########                     HBond_Acceptors:                  10
##########                        HBond_Donors:                   1
##########                         Heavy_Atoms:                  29
##########                          Grid_Score:          -27.705112
##########                     Grid_vdw_energy:          -28.209154
##########                      Grid_es_energy:            0.504042
##########           Internal_energy_repulsive:           28.934116

@<TRIPOS>MOLECULE
ZINC000012087388
 55 58 1 0 0
SMALL
USER_CHARGES


@<TRIPOS>ATOM
      1 C1        -12.6336   -5.0132   57.0966 C.3     1  <0>        -0.6600
      2 S2        -13.9880   -3.9072   57.5792 S.o2    1  <0>         2.5100
      3 O3        -14.4655   -3.1830   56.4537 O.2     1  <0>        -0.9400
      4 O4        -14.8858   -4.5721   58.4572 O.2     1  <0>        -0.9300
      5 C5        -13.2189   -2.6846   58.5882 C.ar    1  <0>        -0.8400
      6 C6        -13.4457   -2.6496   59.9549 C.ar    1  <0>         0.3000
      7 N7        -12.8523   -1.7188   60.6839 N.ar    1  <0>        -0.5800
      8 C8        -12.0496   -0.8275   60.1215 C.ar    1  <0>         0.6000
      9 N9        -11.4451    0.1326   60.9142 N.pl3   1  <0>        -0.5700
     10 C10       -12.2506    1.0026   61.7819 C.3     1  <0>         0.1200
     11 C11       -11.7091    0.9106   63.2119 C.3     1  <0>        -0.1400
     12 C12       -10.2139    1.2366   63.2089 C.3     1  <0>        -0.1200
     13 C13        -9.4694    0.2170   62.3439 C.3     1  <0>        -0.1400
     14 C14        -9.9850    0.2971   60.9085 C.3     1  <0>         0.1200
     15 N15       -11.8114   -0.8336   58.8180 N.ar    1  <0>        -0.5700
     16 C16       -12.3692   -1.7403   58.0331 C.ar    1  <0>         0.3200
     17 C17       -12.0930   -1.7402   56.5517 C.3     1  <0>        -0.0700
     18 C18       -12.9228   -0.6446   55.8784 C.3     1  <0>        -0.1300
     19 C19       -12.6657   -0.6701   54.3684 C.3     1  <0>         0.0900
     20 N20       -11.2195   -0.5623   54.1330 N.am    1  <0>        -0.6100
     21 C21       -10.7257    0.3892   53.3161 C.2     1  <0>         0.5900
     22 O22       -11.4794    1.1689   52.7654 O.2     1  <0>        -0.5100
     23 C23        -9.2746    0.4846   53.0902 C.2     1  <0>        -0.0400
     24 C24        -8.5318   -0.2150   52.1552 C.2     1  <0>        -0.1500
     25 C25        -7.2153    0.2179   52.3297 C.2     1  <0>         0.0000
     26 N26        -7.2079    1.1012   53.2952 N.2     1  <0>        -0.2700
     27 N27        -8.3919    1.2855   53.7575 N.pl3   1  <0>        -0.3900
     28 C28       -10.3216   -1.5113   54.8054 C.3     1  <0>         0.1100
     29 C29       -10.6049   -1.4763   56.3104 C.3     1  <0>        -0.1200
     30 H30       -11.8806   -4.4476   56.5478 H       1  <0>         0.1400
     31 H31       -12.1831   -5.4470   57.9893 H       1  <0>         0.1300
     32 H32       -13.0233   -5.8097   56.4626 H       1  <0>         0.1400
     33 H33       -14.0992   -3.3733   60.4191 H       1  <0>         0.1900
     34 H34       -12.1828    2.0324   61.4310 H       1  <0>         0.0700
     35 H35       -13.2903    0.6757   61.7630 H       1  <0>         0.1000
     36 H36       -12.2356    1.6231   63.8469 H       1  <0>         0.0800
     37 H37       -11.8605   -0.0991   63.5940 H       1  <0>         0.0700
     38 H38       -10.0612    2.2370   62.8036 H       1  <0>         0.0700
     39 H39        -9.8312    1.1959   64.2287 H       1  <0>         0.0700
     40 H40        -8.4017    0.4359   62.3610 H       1  <0>         0.0800
     41 H41        -9.6419   -0.7860   62.7341 H       1  <0>         0.0700
     42 H42        -9.5292   -0.4931   60.3119 H       1  <0>         0.1000
     43 H43        -9.7343    1.2692   60.4840 H       1  <0>         0.0700
     44 H44       -12.3626   -2.7093   56.1319 H       1  <0>         0.1000
     45 H45       -13.9813   -0.8203   56.0702 H       1  <0>         0.0800
     46 H46       -12.6361    0.3274   56.2798 H       1  <0>         0.0900
     47 H47       -13.0351   -1.6067   53.9506 H       1  <0>         0.0800
     48 H48       -13.1763    0.1693   53.8965 H       1  <0>         0.0900
     49 H49        -8.8932   -0.9412   51.4422 H       1  <0>         0.1700
     50 H50        -6.3560   -0.1173   51.7678 H       1  <0>         0.1900
     51 H51        -8.6231    1.8952   54.4756 H       1  <0>         0.4400
     52 H52       -10.4998   -2.5164   54.4233 H       1  <0>         0.0800
     53 H53        -9.2855   -1.2267   54.6219 H       1  <0>         0.1000
     54 H54       -10.3401   -0.4965   56.7078 H       1  <0>         0.0800
     55 H55       -10.0137   -2.2439   56.8099 H       1  <0>         0.0900
@<TRIPOS>BOND
     1     1     2    1
     2     1    30    1
     3     1    31    1
     4     1    32    1
     5     2     3    2
     6     2     4    2
     7     2     5    1
     8     5    16   ar
     9     5     6   ar
    10     6     7   ar
    11     6    33    1
    12     7     8   ar
    13     8     9    1
    14     8    15   ar
    15     9    14    1
    16     9    10    1
    17    10    11    1
    18    10    34    1
    19    10    35    1
    20    11    12    1
    21    11    36    1
    22    11    37    1
    23    12    13    1
    24    12    38    1
    25    12    39    1
    26    13    14    1
    27    13    40    1
    28    13    41    1
    29    14    42    1
    30    14    43    1
    31    15    16   ar
    32    16    17    1
    33    17    29    1
    34    17    18    1
    35    17    44    1
    36    18    19    1
    37    18    45    1
    38    18    46    1
    39    19    20    1
    40    19    47    1
    41    19    48    1
    42    20    21   am
    43    20    28    1
    44    21    22    2
    45    21    23    1
    46    23    27    1
    47    23    24    2
    48    24    25    1
    49    24    49    1
    50    25    26    2
    51    25    50    1
    52    26    27    1
    53    27    51    1
    54    28    29    1
    55    28    52    1
    56    28    53    1
    57    29    54    1
    58    29    55    1
@<TRIPOS>SUBSTRUCTURE
     1 <0>         1 TEMP              0 ****  ****    0 ROOT


##########                                Name:    ZINC000797321835
##########                DOCK_Rotatable_Bonds:                   4
##########                         Heavy_Atoms:                  22
##########                    Molecular_Weight:             381.253
##########                DOCK_Rotatable_Bonds:                   4
##########                       Formal_Charge:           0.0200001
##########                     HBond_Acceptors:                   7
##########                        HBond_Donors:                   1
##########                         Heavy_Atoms:                  22
##########                          Grid_Score:          -27.604490
##########                     Grid_vdw_energy:          -26.434263
##########                      Grid_es_energy:           -1.170227
##########           Internal_energy_repulsive:            5.266636

@<TRIPOS>MOLECULE
ZINC000797321835
 35 37 1 0 0
SMALL
USER_CHARGES


@<TRIPOS>ATOM
      1 C1         -3.2869    4.8875   50.2882 C.3     1  ZINC000797321835    0.1000
      2 N2         -2.7952    3.7542   49.5008 N.am    1  ZINC000797321835   -0.6000
      3 C3         -1.4952    3.4744   49.3043 C.2     1  ZINC000797321835    0.5200
      4 O4         -0.5705    4.1236   49.7451 O.2     1  ZINC000797321835   -0.5200
      5 C5         -1.3533    2.2314   48.4537 C.3     1  ZINC000797321835   -0.1500
      6 C6         -2.7493    1.5690   48.5145 C.3     1  ZINC000797321835   -0.1200
      7 C7         -3.6586    2.7749   48.8303 C.3     1  ZINC000797321835    0.1200
      8 H8         -4.0555    3.1999   47.9085 H       1  ZINC000797321835    0.1100
      9 C9         -4.7860    2.3544   49.7376 C.2     1  ZINC000797321835    0.4900
     10 O10        -5.9072    2.7758   49.5471 O.2     1  ZINC000797321835   -0.4400
     11 N11        -4.5483    1.5099   50.7608 N.am    1  ZINC000797321835   -0.6500
     12 C12        -5.5917    1.1207   51.6005 C.ar    1  ZINC000797321835    0.3000
     13 C13        -5.9755    1.9401   52.6627 C.ar    1  ZINC000797321835   -0.1400
     14 C14        -7.0153    1.5148   53.4693 C.ar    1  ZINC000797321835   -0.0800
     15 C15        -7.6188    0.2864   53.1690 C.ar    1  ZINC000797321835    0.1100
     16 C16        -8.7336   -0.2141   53.9981 C.2     1  ZINC000797321835   -0.1400
     17 C17        -9.8590   -0.7875   53.5255 C.2     1  ZINC000797321835   -0.0900
     18 C18       -10.7592   -1.1760   54.4952 C.2     1  ZINC000797321835   -0.0900
     19 C19       -10.3797   -0.9254   55.7532 C.2     1  ZINC000797321835   -0.2000
     20 Br20      -11.3906   -1.3378   57.2972 Br      1  ZINC000797321835    0.0200
     21 S21        -8.7958   -0.1613   55.7551 S.3     1  ZINC000797321835    0.1900
     22 N22        -7.1843   -0.4260   52.1350 N.ar    1  ZINC000797321835   -0.1900
     23 N23        -6.2222   -0.0241   51.3866 N.ar    1  ZINC000797321835   -0.2200
     24 H24        -3.4023    4.5841   51.3288 H       1  ZINC000797321835    0.0700
     25 H25        -2.5737    5.7095   50.2264 H       1  ZINC000797321835    0.0800
     26 H26        -4.2504    5.2121   49.8953 H       1  ZINC000797321835    0.0700
     27 H27        -1.1020    2.4983   47.4272 H       1  ZINC000797321835    0.1100
     28 H28        -0.5973    1.5670   48.8721 H       1  ZINC000797321835    0.1100
     29 H29        -3.0104    1.1208   47.5558 H       1  ZINC000797321835    0.1100
     30 H30        -2.7959    0.8302   49.3144 H       1  ZINC000797321835    0.0900
     31 H31        -3.6517    1.1728   50.9132 H       1  ZINC000797321835    0.4200
     32 H32        -5.4751    2.8788   52.8496 H       1  ZINC000797321835    0.1600
     33 H33        -7.3515    2.1108   54.3048 H       1  ZINC000797321835    0.1500
     34 H34       -10.0410   -0.9309   52.4706 H       1  ZINC000797321835    0.1600
     35 H35       -11.7011   -1.6475   54.2565 H       1  ZINC000797321835    0.1600
@<TRIPOS>BOND
     1     1     2    1
     2     1    24    1
     3     1    25    1
     4     1    26    1
     5     2     7    1
     6     2     3   am
     7     3     4    2
     8     3     5    1
     9     5     6    1
    10     5    27    1
    11     5    28    1
    12     6     7    1
    13     6    29    1
    14     6    30    1
    15     7     8    1
    16     7     9    1
    17     9    10    2
    18     9    11   am
    19    11    12    1
    20    11    31    1
    21    12    23   ar
    22    12    13   ar
    23    13    14   ar
    24    13    32    1
    25    14    15   ar
    26    14    33    1
    27    15    16    1
    28    15    22   ar
    29    16    21    1
    30    16    17    2
    31    17    18    1
    32    17    34    1
    33    18    19    2
    34    18    35    1
    35    19    20    1
    36    19    21    1
    37    22    23   ar
@<TRIPOS>SUBSTRUCTURE
     1 ZINC000797321835        1 TEMP              0 ****  ****    0 ROOT


##########                                Name:    ZINC001220212140
##########                DOCK_Rotatable_Bonds:                   6
##########                         Heavy_Atoms:                  28
##########                    Molecular_Weight:             379.459
##########                DOCK_Rotatable_Bonds:                   6
##########                       Formal_Charge:         -0.00999925
##########                     HBond_Acceptors:                   6
##########                        HBond_Donors:                   1
##########                         Heavy_Atoms:                  28
##########                          Grid_Score:          -27.594757
##########                     Grid_vdw_energy:          -27.513330
##########                      Grid_es_energy:           -0.081427
##########           Internal_energy_repulsive:           15.976507

@<TRIPOS>MOLECULE
ZINC001220212140
 53 56 1 0 0
SMALL
USER_CHARGES


@<TRIPOS>ATOM
      1 C1         -3.8971    3.4885   50.1771 C.3     1  ZINC001220212140   -0.1700
      2 C2         -4.6457    2.3238   49.5260 C.3     1  ZINC001220212140    0.0800
      3 H3         -4.1219    1.9806   48.6339 H       1  ZINC001220212140    0.1200
      4 C4         -4.8342    1.1631   50.5312 C.3     1  ZINC001220212140   -0.1100
      5 C5         -6.1994    1.4724   51.1151 C.ar    1  ZINC001220212140   -0.1500
      6 C6         -6.8484    1.0125   52.2385 C.ar    1  ZINC001220212140   -0.0700
      7 C7         -8.1202    1.4813   52.5450 C.ar    1  ZINC001220212140    0.1400
      8 N8         -8.7858    1.0171   53.6876 N.am    1  ZINC001220212140   -0.6800
      9 C9         -8.3370    1.3545   54.9128 C.2     1  ZINC001220212140    0.7200
     10 O10        -7.3545    2.0617   55.0268 O.2     1  ZINC001220212140   -0.5700
     11 N11        -8.9771    0.9081   56.0116 N.am    1  ZINC001220212140   -0.6300
     12 C12       -10.1713    0.0504   56.0185 C.3     1  ZINC001220212140    0.0900
     13 C13       -10.5299   -0.2238   57.4941 C.3     1  ZINC001220212140   -0.1100
     14 C14        -9.1879    0.0284   58.2307 C.3     1  ZINC001220212140   -0.1300
     15 H15        -8.5440   -0.8497   58.1814 H       1  ZINC001220212140    0.1200
     16 C16        -9.4255    0.4407   59.6606 C.2     1  ZINC001220212140    0.5300
     17 O17        -9.7277    1.5866   59.9190 O.2     1  ZINC001220212140   -0.5100
     18 N18        -9.3023   -0.4637   60.6521 N.am    1  ZINC001220212140   -0.5700
     19 C19        -8.9374   -1.8477   60.3399 C.3     1  ZINC001220212140    0.0700
     20 C20        -9.5230   -0.0808   61.9797 C.ar    1  ZINC001220212140    0.1400
     21 C21       -10.6712    0.6227   62.3193 C.ar    1  ZINC001220212140   -0.1100
     22 C22       -10.8860    0.9992   63.6307 C.ar    1  ZINC001220212140   -0.1100
     23 C23        -9.9592    0.6767   64.6049 C.ar    1  ZINC001220212140   -0.1200
     24 C24        -8.8147   -0.0233   64.2698 C.ar    1  ZINC001220212140   -0.1100
     25 C25        -8.5971   -0.4085   62.9615 C.ar    1  ZINC001220212140   -0.1200
     26 C26        -8.5923    1.1937   57.4058 C.3     1  ZINC001220212140    0.1400
     27 C27        -8.7271    2.4122   51.7133 C.ar    1  ZINC001220212140   -0.1100
     28 C28        -8.0749    2.8678   50.5868 C.ar    1  ZINC001220212140   -0.1200
     29 C29        -6.8020    2.3987   50.2732 C.ar    1  ZINC001220212140    0.0900
     30 O30        -5.9970    2.6997   49.2103 O.3     1  ZINC001220212140   -0.3000
     31 H31        -4.4433    3.8240   51.0588 H       1  ZINC001220212140    0.0600
     32 H32        -2.8998    3.1609   50.4704 H       1  ZINC001220212140    0.0800
     33 H33        -3.8150    4.3105   49.4660 H       1  ZINC001220212140    0.0700
     34 H34        -4.8386    0.2011   50.0190 H       1  ZINC001220212140    0.0900
     35 H35        -4.0656    1.1881   51.3037 H       1  ZINC001220212140    0.0900
     36 H36        -6.3698    0.2883   52.8810 H       1  ZINC001220212140    0.1400
     37 H37        -9.5697    0.4529   53.5967 H       1  ZINC001220212140    0.4100
     38 H38       -10.9978    0.5618   55.5249 H       1  ZINC001220212140    0.0700
     39 H39        -9.9561   -0.8886   55.5086 H       1  ZINC001220212140    0.0700
     40 H40       -11.2961    0.4699   57.8402 H       1  ZINC001220212140    0.1000
     41 H41       -10.8545   -1.2559   57.6268 H       1  ZINC001220212140    0.0900
     42 H42        -7.8524   -1.9504   60.3584 H       1  ZINC001220212140    0.0700
     43 H43        -9.3781   -2.5156   61.0801 H       1  ZINC001220212140    0.0800
     44 H44        -9.3100   -2.1071   59.3490 H       1  ZINC001220212140    0.0800
     45 H45       -11.3951    0.8755   61.5588 H       1  ZINC001220212140    0.1200
     46 H46       -11.7788    1.5464   63.8954 H       1  ZINC001220212140    0.1300
     47 H47       -10.1293    0.9726   65.6295 H       1  ZINC001220212140    0.1300
     48 H48        -8.0924   -0.2730   65.0330 H       1  ZINC001220212140    0.1300
     49 H49        -7.7031   -0.9552   62.7005 H       1  ZINC001220212140    0.1200
     50 H50        -7.5072    1.2142   57.5068 H       1  ZINC001220212140    0.0900
     51 H51        -9.0218    2.1431   57.7254 H       1  ZINC001220212140    0.0700
     52 H52        -9.7144    2.7809   51.9492 H       1  ZINC001220212140    0.1300
     53 H53        -8.5539    3.5923   49.9447 H       1  ZINC001220212140    0.1300
@<TRIPOS>BOND
     1     1     2    1
     2     1    31    1
     3     1    32    1
     4     1    33    1
     5     2     3    1
     6     2    30    1
     7     2     4    1
     8     4     5    1
     9     4    34    1
    10     4    35    1
    11     5    29   ar
    12     5     6   ar
    13     6     7   ar
    14     6    36    1
    15     7     8    1
    16     7    27   ar
    17     8     9   am
    18     8    37    1
    19     9    10    2
    20     9    11   am
    21    11    26    1
    22    11    12    1
    23    12    13    1
    24    12    38    1
    25    12    39    1
    26    13    14    1
    27    13    40    1
    28    13    41    1
    29    14    15    1
    30    14    16    1
    31    14    26    1
    32    16    17    2
    33    16    18   am
    34    18    19    1
    35    18    20    1
    36    19    42    1
    37    19    43    1
    38    19    44    1
    39    20    25   ar
    40    20    21   ar
    41    21    22   ar
    42    21    45    1
    43    22    23   ar
    44    22    46    1
    45    23    24   ar
    46    23    47    1
    47    24    25   ar
    48    24    48    1
    49    25    49    1
    50    26    50    1
    51    26    51    1
    52    27    28   ar
    53    27    52    1
    54    28    29   ar
    55    28    53    1
    56    29    30    1
@<TRIPOS>SUBSTRUCTURE
     1 ZINC001220212140        1 TEMP              0 ****  ****    0 ROOT


##########                                Name:    ZINC000866034032
##########                DOCK_Rotatable_Bonds:                   4
##########                         Heavy_Atoms:                  23
##########                    Molecular_Weight:             383.242
##########                DOCK_Rotatable_Bonds:                   4
##########                       Formal_Charge:           0.0199999
##########                     HBond_Acceptors:                   6
##########                        HBond_Donors:                   1
##########                         Heavy_Atoms:                  23
##########                          Grid_Score:          -27.579733
##########                     Grid_vdw_energy:          -27.477276
##########                      Grid_es_energy:           -0.102457
##########           Internal_energy_repulsive:           13.524933

@<TRIPOS>MOLECULE
ZINC000866034032
 42 44 1 0 0
SMALL
USER_CHARGES


@<TRIPOS>ATOM
      1 C1         -7.1543    4.2342   50.2946 C.3     1  ZINC000866034032   -0.1300
      2 C2         -6.3444    2.9364   50.2599 C.3     1  ZINC000866034032   -0.0800
      3 C3         -5.6160    2.7278   48.9306 C.3     1  ZINC000866034032   -0.1300
      4 C4         -5.4462    2.7406   51.4910 C.3     1  ZINC000866034032    0.1400
      5 H5         -5.1759    3.6736   51.9854 H       1  ZINC000866034032    0.1100
      6 N6         -4.2907    1.8757   51.2403 N.am    1  ZINC000866034032   -0.7000
      7 C7         -3.0541    2.4069   51.1694 C.2     1  ZINC000866034032    0.5100
      8 O8         -2.8981    3.6012   51.3117 O.2     1  ZINC000866034032   -0.5300
      9 C9         -1.8652    1.5171   50.9133 C.3     1  ZINC000866034032   -0.1100
     10 C10        -1.4647    1.6185   49.4640 C.ar    1  ZINC000866034032   -0.0500
     11 C11        -1.1095    2.8427   48.9296 C.ar    1  ZINC000866034032   -0.0500
     12 C12        -0.7424    2.9364   47.6001 C.ar    1  ZINC000866034032   -0.0900
     13 C13        -0.7301    1.8048   46.8049 C.ar    1  ZINC000866034032   -0.0500
     14 Br14       -0.2275    1.9322   44.9864 Br      1  ZINC000866034032    0.0200
     15 C15        -1.0853    0.5797   47.3405 C.ar    1  ZINC000866034032   -0.0200
     16 N16        -1.0719   -0.6316   46.4901 N.pl3   1  ZINC000866034032    0.0200
     17 O17        -1.3846   -1.7103   46.9618 O.2     1  ZINC000866034032   -0.1600
     18 O18        -0.7482   -0.5500   45.3188 O.2     1  ZINC000866034032   -0.1300
     19 C19        -1.4471    0.4861   48.6710 C.ar    1  ZINC000866034032   -0.0300
     20 C20        -6.6267    2.0134   52.1553 C.3     1  ZINC000866034032   -0.1500
     21 H21        -7.2717    2.6186   52.7923 H       1  ZINC000866034032    0.1200
     22 C22        -6.2347    0.6344   52.7313 C.3     1  ZINC000866034032   -0.1400
     23 C23        -6.5507   -0.3554   51.5886 C.3     1  ZINC000866034032    0.0500
     24 O24        -6.4960    0.4407   50.3851 O.3     1  ZINC000866034032   -0.3600
     25 C25        -7.1375    1.7060   50.7243 C.3     1  ZINC000866034032    0.0600
     26 H26        -8.2162    1.7296   50.5696 H       1  ZINC000866034032    0.1000
     27 H27        -7.7670    4.2561   51.1958 H       1  ZINC000866034032    0.0600
     28 H28        -6.4748    5.0864   50.2963 H       1  ZINC000866034032    0.0700
     29 H29        -7.7979    4.2844   49.4164 H       1  ZINC000866034032    0.0700
     30 H30        -4.8097    3.4556   48.8401 H       1  ZINC000866034032    0.0600
     31 H31        -5.2014    1.7203   48.8977 H       1  ZINC000866034032    0.0600
     32 H32        -6.3180    2.8590   48.1071 H       1  ZINC000866034032    0.0600
     33 H33        -4.4155    0.9206   51.1253 H       1  ZINC000866034032    0.4100
     34 H34        -1.0331    1.8322   51.5430 H       1  ZINC000866034032    0.1100
     35 H35        -2.1268    0.4849   51.1467 H       1  ZINC000866034032    0.1200
     36 H36        -1.1191    3.7263   49.5506 H       1  ZINC000866034032    0.1500
     37 H37        -0.4656    3.8930   47.1823 H       1  ZINC000866034032    0.1600
     38 H38        -1.7240   -0.4704   49.0893 H       1  ZINC000866034032    0.1600
     39 H39        -5.1724    0.6103   52.9744 H       1  ZINC000866034032    0.0800
     40 H40        -6.8341    0.4044   53.6123 H       1  ZINC000866034032    0.0800
     41 H41        -5.8022   -1.1470   51.5543 H       1  ZINC000866034032    0.0900
     42 H42        -7.5467   -0.7791   51.7183 H       1  ZINC000866034032    0.0600
@<TRIPOS>BOND
     1     1     2    1
     2     1    27    1
     3     1    28    1
     4     1    29    1
     5     2    25    1
     6     2     3    1
     7     2     4    1
     8     3    30    1
     9     3    31    1
    10     3    32    1
    11     4     5    1
    12     4     6    1
    13     4    20    1
    14     6     7   am
    15     6    33    1
    16     7     8    2
    17     7     9    1
    18     9    10    1
    19     9    34    1
    20     9    35    1
    21    10    19   ar
    22    10    11   ar
    23    11    12   ar
    24    11    36    1
    25    12    13   ar
    26    12    37    1
    27    13    14    1
    28    13    15   ar
    29    15    16    1
    30    15    19   ar
    31    16    17    2
    32    16    18    2
    33    19    38    1
    34    20    21    1
    35    20    25    1
    36    20    22    1
    37    22    23    1
    38    22    39    1
    39    22    40    1
    40    23    24    1
    41    23    41    1
    42    23    42    1
    43    24    25    1
    44    25    26    1
@<TRIPOS>SUBSTRUCTURE
     1 ZINC000866034032        1 TEMP              0 ****  ****    0 ROOT


##########                                Name:    ZINC000326056918
##########                DOCK_Rotatable_Bonds:                   6
##########                         Heavy_Atoms:                  24
##########                    Molecular_Weight:             408.326
##########                DOCK_Rotatable_Bonds:                   6
##########                       Formal_Charge:         -0.00999978
##########                     HBond_Acceptors:                   9
##########                        HBond_Donors:                   0
##########                         Heavy_Atoms:                  24
##########                          Grid_Score:          -27.535534
##########                     Grid_vdw_energy:          -28.846684
##########                      Grid_es_energy:            1.311150
##########           Internal_energy_repulsive:           32.899887

@<TRIPOS>MOLECULE
ZINC000326056918
 39 40 1 0 0
SMALL
USER_CHARGES


@<TRIPOS>ATOM
      1 C1         -1.2698    0.1978   44.8017 C.3     1  ZINC000326056918    0.0400
      2 O2         -0.7174    0.1598   46.1440 O.3     1  ZINC000326056918   -0.3500
      3 C3         -0.3506    1.3382   46.6888 C.2     1  ZINC000326056918    0.5000
      4 O4         -0.7278    2.3819   46.1911 O.2     1  ZINC000326056918   -0.4300
      5 C5          0.5014    1.3606   47.8790 C.2     1  ZINC000326056918   -0.1600
      6 C6          0.0775    1.6174   49.1535 C.2     1  ZINC000326056918   -0.6200
      7 S7         -1.5997    1.9681   49.5645 S.o2    1  ZINC000326056918    2.6900
      8 O8         -2.3749    1.6062   48.4299 O.2     1  ZINC000326056918   -0.9100
      9 O9         -1.8174    1.4254   50.8596 O.2     1  ZINC000326056918   -0.9400
     10 N10        -1.7336    3.6115   49.7175 N.am    1  ZINC000326056918   -0.9900
     11 C11        -0.5605    4.4644   49.5118 C.3     1  ZINC000326056918    0.0900
     12 C12        -3.0254    4.2126   50.0586 C.3     1  ZINC000326056918    0.1500
     13 C13        -4.0030    3.1266   50.4274 C.ar    1  ZINC000326056918   -0.0900
     14 C14        -4.7762    2.5316   49.4487 C.ar    1  ZINC000326056918   -0.0800
     15 C15        -5.6735    1.5356   49.7862 C.ar    1  ZINC000326056918   -0.1100
     16 C16        -5.7977    1.1337   51.1041 C.ar    1  ZINC000326056918   -0.0200
     17 Cl17       -6.9241   -0.1174   51.5277 Cl      1  ZINC000326056918   -0.0600
     18 C18        -5.0235    1.7287   52.0843 C.ar    1  ZINC000326056918   -0.1100
     19 C19        -4.1223    2.7215   51.7452 C.ar    1  ZINC000326056918   -0.0300
     20 Cl20       -3.1501    3.4683   52.9744 Cl      1  ZINC000326056918   -0.0100
     21 C21         1.0896    1.5739   50.0819 C.2     1  ZINC000326056918   -0.0400
     22 C22         0.8525    1.8251   51.5487 C.3     1  ZINC000326056918   -0.1100
     23 C23         2.3014    1.2917   49.5883 C.2     1  ZINC000326056918   -0.2600
     24 S24         2.2327    1.0543   47.9001 S.3     1  ZINC000326056918    0.3100
     25 H25        -1.5225   -0.8138   44.4841 H       1  ZINC000326056918    0.1100
     26 H26        -2.1679    0.8155   44.7956 H       1  ZINC000326056918    0.0700
     27 H27        -0.5337    0.6202   44.1176 H       1  ZINC000326056918    0.0700
     28 H28        -0.4473    4.6763   48.4486 H       1  ZINC000326056918    0.0600
     29 H29        -0.6908    5.3993   50.0567 H       1  ZINC000326056918    0.0700
     30 H30         0.3297    3.9520   49.8769 H       1  ZINC000326056918    0.0900
     31 H31        -2.8993    4.8900   50.9032 H       1  ZINC000326056918    0.1100
     32 H32        -3.4056    4.7678   49.2011 H       1  ZINC000326056918    0.0900
     33 H33        -4.6796    2.8451   48.4196 H       1  ZINC000326056918    0.1400
     34 H34        -6.2780    1.0715   49.0209 H       1  ZINC000326056918    0.1400
     35 H35        -5.1201    1.4153   53.1133 H       1  ZINC000326056918    0.1500
     36 H36         0.5061    0.9070   52.0233 H       1  ZINC000326056918    0.0900
     37 H37         1.7825    2.1477   52.0171 H       1  ZINC000326056918    0.0700
     38 H38         0.0975    2.6024   51.6669 H       1  ZINC000326056918    0.0900
     39 H39         3.2019    1.2200   50.1803 H       1  ZINC000326056918    0.1800
@<TRIPOS>BOND
     1     1     2    1
     2     1    25    1
     3     1    26    1
     4     1    27    1
     5     2     3    1
     6     3     4    2
     7     3     5    1
     8     5    24    1
     9     5     6    2
    10     6     7    1
    11     6    21    1
    12     7     8    2
    13     7     9    2
    14     7    10   am
    15    10    11    1
    16    10    12    1
    17    11    28    1
    18    11    29    1
    19    11    30    1
    20    12    13    1
    21    12    31    1
    22    12    32    1
    23    13    19   ar
    24    13    14   ar
    25    14    15   ar
    26    14    33    1
    27    15    16   ar
    28    15    34    1
    29    16    17    1
    30    16    18   ar
    31    18    19   ar
    32    18    35    1
    33    19    20    1
    34    21    22    1
    35    21    23    2
    36    22    36    1
    37    22    37    1
    38    22    38    1
    39    23    24    1
    40    23    39    1
@<TRIPOS>SUBSTRUCTURE
     1 ZINC000326056918        1 TEMP              0 ****  ****    0 ROOT


##########                                Name:    ZINC000446721380
##########                DOCK_Rotatable_Bonds:                   8
##########                         Heavy_Atoms:                  26
##########                    Molecular_Weight:             419.318
##########                DOCK_Rotatable_Bonds:                   8
##########                       Formal_Charge:           0.0199992
##########                     HBond_Acceptors:                   5
##########                        HBond_Donors:                   2
##########                         Heavy_Atoms:                  26
##########                          Grid_Score:          -27.518776
##########                     Grid_vdw_energy:          -27.253263
##########                      Grid_es_energy:           -0.265512
##########           Internal_energy_repulsive:           12.453150

@<TRIPOS>MOLECULE
ZINC000446721380
 49 51 1 0 0
SMALL
USER_CHARGES


@<TRIPOS>ATOM
      1 C1        -14.8799   -3.0522   56.0609 C.3     1  ZINC000446721380   -0.1200
      2 C2        -13.5050   -2.4943   55.7971 C.ar    1  ZINC000446721380   -0.0300
      3 C3        -13.3321   -1.5029   54.8493 C.ar    1  ZINC000446721380   -0.1600
      4 C4        -12.0718   -0.9889   54.6049 C.ar    1  ZINC000446721380   -0.0500
      5 C5        -10.9823   -1.4651   55.3076 C.ar    1  ZINC000446721380   -0.1500
      6 C6         -9.6092   -0.9042   55.0412 C.3     1  ZINC000446721380    0.1900
      7 N7         -9.4508   -0.6623   53.6051 N.am    1  ZINC000446721380   -0.7300
      8 C8         -8.4568    0.1324   53.1612 C.2     1  ZINC000446721380    0.7100
      9 O9         -7.6906    0.6472   53.9525 O.2     1  ZINC000446721380   -0.5700
     10 N10        -8.3121    0.3562   51.8400 N.am    1  ZINC000446721380   -0.6900
     11 C11        -7.2796    1.1816   51.3789 C.ar    1  ZINC000446721380    0.2000
     12 C12        -6.0354    0.6408   51.0854 C.ar    1  ZINC000446721380   -0.1200
     13 C13        -5.0185    1.4579   50.6301 C.ar    1  ZINC000446721380   -0.0800
     14 C14        -5.2388    2.8129   50.4665 C.ar    1  ZINC000446721380   -0.1300
     15 C15        -6.4770    3.3555   50.7583 C.ar    1  ZINC000446721380   -0.0700
     16 C16        -7.4999    2.5431   51.2086 C.ar    1  ZINC000446721380   -0.1300
     17 Br17       -9.1929    3.2853   51.6068 Br      1  ZINC000446721380   -0.0500
     18 C18       -11.1532   -2.4601   56.2596 C.ar    1  ZINC000446721380    0.1500
     19 O19       -10.0828   -2.9301   56.9526 O.3     1  ZINC000446721380   -0.3100
     20 C20       -10.2795   -3.2071   58.3406 C.3     1  ZINC000446721380    0.0700
     21 C21       -10.5647   -1.9017   59.0859 C.3     1  ZINC000446721380   -0.1200
     22 H22       -11.1309   -1.2182   58.4531 H       1  ZINC000446721380    0.1000
     23 C23        -9.2428   -1.2422   59.5488 C.3     1  ZINC000446721380   -0.1500
     24 C24        -9.6131   -0.7318   60.9647 C.3     1  ZINC000446721380    0.0500
     25 O25       -10.4784   -1.7663   61.4800 O.3     1  ZINC000446721380   -0.3800
     26 C26       -11.3284   -2.1833   60.3943 C.3     1  ZINC000446721380    0.0500
     27 C27       -12.4192   -2.9701   56.5067 C.ar    1  ZINC000446721380   -0.2100
     28 H28       -15.3654   -2.4677   56.8424 H       1  ZINC000446721380    0.0800
     29 H29       -15.4735   -3.0025   55.1481 H       1  ZINC000446721380    0.0700
     30 H30       -14.7951   -4.0901   56.3831 H       1  ZINC000446721380    0.0700
     31 H31       -14.1828   -1.1295   54.2985 H       1  ZINC000446721380    0.1300
     32 H32       -11.9394   -0.2147   53.8637 H       1  ZINC000446721380    0.1300
     33 H33        -9.4885    0.0338   55.5831 H       1  ZINC000446721380    0.0800
     34 H34        -8.8547   -1.6164   55.3751 H       1  ZINC000446721380    0.0800
     35 H35       -10.0612   -1.0740   52.9736 H       1  ZINC000446721380    0.4000
     36 H36        -8.9233   -0.0545   51.2086 H       1  ZINC000446721380    0.4100
     37 H37        -5.8621   -0.4174   51.2132 H       1  ZINC000446721380    0.1500
     38 H38        -4.0501    1.0375   50.4020 H       1  ZINC000446721380    0.1300
     39 H39        -4.4421    3.4492   50.1105 H       1  ZINC000446721380    0.1300
     40 H40        -6.6458    4.4145   50.6302 H       1  ZINC000446721380    0.1400
     41 H41       -11.1245   -3.8854   58.4595 H       1  ZINC000446721380    0.0700
     42 H42        -9.3815   -3.6703   58.7495 H       1  ZINC000446721380    0.0700
     43 H43        -8.4382   -1.9760   59.5979 H       1  ZINC000446721380    0.0800
     44 H44        -8.9719   -0.4131   58.8950 H       1  ZINC000446721380    0.0900
     45 H45        -8.7208   -0.6344   61.5831 H       1  ZINC000446721380    0.1000
     46 H46       -10.1445    0.2179   60.9036 H       1  ZINC000446721380    0.0600
     47 H47       -12.2590   -1.6161   60.4132 H       1  ZINC000446721380    0.0600
     48 H48       -11.5400   -3.2494   60.4777 H       1  ZINC000446721380    0.0900
     49 H49       -12.5548   -3.7446   57.2472 H       1  ZINC000446721380    0.1300
@<TRIPOS>BOND
     1     1     2    1
     2     1    28    1
     3     1    29    1
     4     1    30    1
     5     2    27   ar
     6     2     3   ar
     7     3     4   ar
     8     3    31    1
     9     4     5   ar
    10     4    32    1
    11     5     6    1
    12     5    18   ar
    13     6     7    1
    14     6    33    1
    15     6    34    1
    16     7     8   am
    17     7    35    1
    18     8     9    2
    19     8    10   am
    20    10    11    1
    21    10    36    1
    22    11    16   ar
    23    11    12   ar
    24    12    13   ar
    25    12    37    1
    26    13    14   ar
    27    13    38    1
    28    14    15   ar
    29    14    39    1
    30    15    16   ar
    31    15    40    1
    32    16    17    1
    33    18    19    1
    34    18    27   ar
    35    19    20    1
    36    20    21    1
    37    20    41    1
    38    20    42    1
    39    21    22    1
    40    21    26    1
    41    21    23    1
    42    23    24    1
    43    23    43    1
    44    23    44    1
    45    24    25    1
    46    24    45    1
    47    24    46    1
    48    25    26    1
    49    26    47    1
    50    26    48    1
    51    27    49    1
@<TRIPOS>SUBSTRUCTURE
     1 ZINC000446721380        1 TEMP              0 ****  ****    0 ROOT


##########                                Name:    ZINC001708427409
##########                DOCK_Rotatable_Bonds:                   6
##########                         Heavy_Atoms:                  24
##########                    Molecular_Weight:             334.505
##########                DOCK_Rotatable_Bonds:                   6
##########                       Formal_Charge:          -0.0200006
##########                     HBond_Acceptors:                   5
##########                        HBond_Donors:                   1
##########                         Heavy_Atoms:                  24
##########                          Grid_Score:          -27.504375
##########                     Grid_vdw_energy:          -26.351831
##########                      Grid_es_energy:           -1.152543
##########           Internal_energy_repulsive:           22.534990

@<TRIPOS>MOLECULE
ZINC001708427409
 58 60 1 0 0
SMALL
USER_CHARGES


@<TRIPOS>ATOM
      1 C1          1.0960    2.2601   45.1496 C.3     1  ZINC001708427409   -0.1500
      2 C2         -0.3071    2.5808   45.6683 C.3     1  ZINC001708427409   -0.1200
      3 C3         -0.8399    1.3901   46.4677 C.3     1  ZINC001708427409    0.0000
      4 H4         -0.0448    0.9898   47.0968 H       1  ZINC001708427409    0.0800
      5 C5         -1.3234    0.3043   45.5042 C.3     1  ZINC001708427409   -0.1400
      6 C6         -1.9877    1.8400   47.3344 C.2     1  ZINC001708427409    0.1800
      7 N7         -3.0574    2.4676   46.9347 N.2     1  ZINC001708427409   -0.2800
      8 N8         -3.8315    2.6996   47.9341 N.2     1  ZINC001708427409   -0.3200
      9 C9         -3.2929    2.2285   49.0340 C.2     1  ZINC001708427409    0.3600
     10 N10        -3.8337    2.2911   50.3085 N.3     1  ZINC001708427409   -0.4200
     11 C11        -4.7630    1.1527   50.5503 C.3     1  ZINC001708427409    0.0400
     12 C12        -5.6818    1.6308   51.6960 C.3     1  ZINC001708427409   -0.0900
     13 H13        -5.3243    1.2495   52.6524 H       1  ZINC001708427409    0.0900
     14 C14        -7.1214    1.1759   51.4479 C.3     1  ZINC001708427409   -0.1500
     15 C15        -5.5906    3.1800   51.6648 C.3     1  ZINC001708427409   -0.0800
     16 H16        -6.5766    3.6294   51.5477 H       1  ZINC001708427409    0.0900
     17 C17        -4.9408    3.6189   52.9775 C.3     1  ZINC001708427409   -0.1100
     18 C18        -4.5340    5.0893   52.8865 C.3     1  ZINC001708427409   -0.1200
     19 C19        -3.4400    5.2243   51.8297 C.3     1  ZINC001708427409   -0.1100
     20 C20        -3.9443    4.7680   50.4757 C.3     1  ZINC001708427409   -0.1000
     21 C21        -4.7061    3.4760   50.4564 C.3     1  ZINC001708427409    0.1000
     22 H22        -5.3509    3.4971   49.5778 H       1  ZINC001708427409    0.0600
     23 N23        -2.1025    1.6601   48.6850 N.pl3   1  ZINC001708427409   -0.4700
     24 C24        -1.1420    1.0024   49.5744 C.3     1  ZINC001708427409    0.0800
     25 C25        -0.3177    2.0622   50.3080 C.3     1  ZINC001708427409    0.1200
     26 C26         0.9112    1.4051   50.9398 C.3     1  ZINC001708427409   -0.1800
     27 C27         0.1319    3.1359   49.3152 C.3     1  ZINC001708427409   -0.1500
     28 O28        -1.1154    2.6627   51.3304 O.3     1  ZINC001708427409   -0.5400
     29 H29         1.0537    1.3807   44.5069 H       1  ZINC001708427409    0.0600
     30 H30         1.4756    3.1084   44.5801 H       1  ZINC001708427409    0.0600
     31 H31         1.7585    2.0626   45.9923 H       1  ZINC001708427409    0.0500
     32 H32        -0.2648    3.4602   46.3110 H       1  ZINC001708427409    0.0700
     33 H33        -0.9696    2.7783   44.8256 H       1  ZINC001708427409    0.0800
     34 H34        -0.4933   -0.0212   44.8774 H       1  ZINC001708427409    0.0700
     35 H35        -1.7030   -0.5440   46.0738 H       1  ZINC001708427409    0.0500
     36 H36        -2.1186    0.7046   44.8752 H       1  ZINC001708427409    0.0700
     37 H37        -5.3494    0.9445   49.6553 H       1  ZINC001708427409    0.0600
     38 H38        -4.2064    0.2664   50.8551 H       1  ZINC001708427409    0.0800
     39 H39        -7.1590    0.0869   51.4217 H       1  ZINC001708427409    0.0600
     40 H40        -7.7617    1.5424   52.2502 H       1  ZINC001708427409    0.0600
     41 H41        -7.4692    1.5744   50.4948 H       1  ZINC001708427409    0.0600
     42 H42        -5.6508    3.4891   53.7945 H       1  ZINC001708427409    0.0600
     43 H43        -4.0572    3.0093   53.1662 H       1  ZINC001708427409    0.0700
     44 H44        -5.3965    5.6909   52.5996 H       1  ZINC001708427409    0.0600
     45 H45        -4.1544    5.4248   53.8516 H       1  ZINC001708427409    0.0600
     46 H46        -3.1302    6.2672   51.7647 H       1  ZINC001708427409    0.0600
     47 H47        -2.5845    4.6136   52.1184 H       1  ZINC001708427409    0.0600
     48 H48        -4.5980    5.5434   50.0761 H       1  ZINC001708427409    0.0600
     49 H49        -3.0887    4.6721   49.8074 H       1  ZINC001708427409    0.0700
     50 H50        -1.6784    0.3921   50.3010 H       1  ZINC001708427409    0.0900
     51 H51        -0.4781    0.3681   48.9869 H       1  ZINC001708427409    0.1000
     52 H52         1.5197    0.9471   50.1600 H       1  ZINC001708427409    0.0700
     53 H53         1.4985    2.1602   51.4626 H       1  ZINC001708427409    0.0700
     54 H54         0.5910    0.6401   51.6471 H       1  ZINC001708427409    0.0600
     55 H55        -0.7393    3.5465   48.8048 H       1  ZINC001708427409    0.0700
     56 H56         0.6482    3.9327   49.8508 H       1  ZINC001708427409    0.0700
     57 H57         0.8072    2.6937   48.5827 H       1  ZINC001708427409    0.0700
     58 H58        -1.4358    2.0390   51.9963 H       1  ZINC001708427409    0.3800
@<TRIPOS>BOND
     1     1     2    1
     2     1    29    1
     3     1    30    1
     4     1    31    1
     5     2     3    1
     6     2    32    1
     7     2    33    1
     8     3     4    1
     9     3     5    1
    10     3     6    1
    11     5    34    1
    12     5    35    1
    13     5    36    1
    14     6    23    1
    15     6     7    2
    16     7     8    1
    17     8     9    2
    18     9    10    1
    19     9    23    1
    20    10    21    1
    21    10    11    1
    22    11    12    1
    23    11    37    1
    24    11    38    1
    25    12    13    1
    26    12    14    1
    27    12    15    1
    28    14    39    1
    29    14    40    1
    30    14    41    1
    31    15    16    1
    32    15    21    1
    33    15    17    1
    34    17    18    1
    35    17    42    1
    36    17    43    1
    37    18    19    1
    38    18    44    1
    39    18    45    1
    40    19    20    1
    41    19    46    1
    42    19    47    1
    43    20    21    1
    44    20    48    1
    45    20    49    1
    46    21    22    1
    47    23    24    1
    48    24    25    1
    49    24    50    1
    50    24    51    1
    51    25    26    1
    52    25    27    1
    53    25    28    1
    54    26    52    1
    55    26    53    1
    56    26    54    1
    57    27    55    1
    58    27    56    1
    59    27    57    1
    60    28    58    1
@<TRIPOS>SUBSTRUCTURE
     1 ZINC001708427409        1 TEMP              0 ****  ****    0 ROOT


##########                                Name:    ZINC000549381790
##########                DOCK_Rotatable_Bonds:                   7
##########                         Heavy_Atoms:                  23
##########                    Molecular_Weight:             337.846
##########                DOCK_Rotatable_Bonds:                   7
##########                       Formal_Charge:           0.0300006
##########                     HBond_Acceptors:                   5
##########                        HBond_Donors:                   0
##########                         Heavy_Atoms:                  23
##########                          Grid_Score:          -27.460871
##########                     Grid_vdw_energy:          -26.592785
##########                      Grid_es_energy:           -0.868085
##########           Internal_energy_repulsive:           87.454140

@<TRIPOS>MOLECULE
ZINC000549381790
 47 49 1 0 0
SMALL
USER_CHARGES


@<TRIPOS>ATOM
      1 C1         -9.1767    3.1992   64.2284 C.3     1  ZINC000549381790   -0.1400
      2 C2         -8.2252    2.1845   64.8653 C.3     1  ZINC000549381790    0.1500
      3 H3         -7.2138    2.5907   64.8793 H       1  ZINC000549381790    0.0700
      4 C4         -8.6781    1.8844   66.2976 C.3     1  ZINC000549381790   -0.1300
      5 C5         -7.8079    0.7685   66.8805 C.3     1  ZINC000549381790   -0.1200
      6 C6         -7.9771   -0.5020   66.0443 C.3     1  ZINC000549381790   -0.1400
      7 C7         -7.5162   -0.2291   64.6091 C.3     1  ZINC000549381790    0.1000
      8 N8         -8.2441    0.9371   64.0892 N.am    1  ZINC000549381790   -0.6100
      9 C9         -8.9201    0.8618   62.9257 C.2     1  ZINC000549381790    0.5200
     10 O10        -9.5170    1.8312   62.5074 O.2     1  ZINC000549381790   -0.5000
     11 C11        -8.9343   -0.4269   62.1445 C.3     1  ZINC000549381790    0.0400
     12 O12        -9.7290   -0.2620   60.9682 O.3     1  ZINC000549381790   -0.2800
     13 C13       -10.8486   -1.0271   60.8674 C.ar    1  ZINC000549381790    0.1100
     14 C14       -10.8372   -2.1731   60.0866 C.ar    1  ZINC000549381790   -0.1700
     15 C15       -11.9745   -2.9511   59.9842 C.ar    1  ZINC000549381790   -0.1600
     16 C16       -13.1278   -2.5862   60.6617 C.ar    1  ZINC000549381790    0.1100
     17 O17       -14.2471   -3.3521   60.5607 O.3     1  ZINC000549381790   -0.3000
     18 C18       -14.9212   -3.3529   59.3007 C.3     1  ZINC000549381790    0.0900
     19 C19       -15.2489   -1.9140   58.8969 C.3     1  ZINC000549381790   -0.1600
     20 C20       -14.4402   -1.3000   57.7523 C.3     1  ZINC000549381790   -0.1700
     21 C21       -15.9016   -1.6950   57.5305 C.3     1  ZINC000549381790   -0.1700
     22 C22       -13.1396   -1.4390   61.4434 C.ar    1  ZINC000549381790   -0.0300
     23 Cl23      -14.5833   -0.9819   62.2924 Cl      1  ZINC000549381790   -0.0400
     24 C24       -12.0003   -0.6643   61.5502 C.ar    1  ZINC000549381790   -0.1000
     25 H25       -10.1660    2.7537   64.1235 H       1  ZINC000549381790    0.0600
     26 H26        -9.2419    4.0836   64.8621 H       1  ZINC000549381790    0.0500
     27 H27        -8.8002    3.4834   63.2457 H       1  ZINC000549381790    0.0800
     28 H28        -8.5751    2.7822   66.9072 H       1  ZINC000549381790    0.0800
     29 H29        -9.7207    1.5666   66.2905 H       1  ZINC000549381790    0.0700
     30 H30        -6.7626    1.0774   66.8645 H       1  ZINC000549381790    0.0700
     31 H31        -8.1120    0.5701   67.9081 H       1  ZINC000549381790    0.0700
     32 H32        -7.3751   -1.3029   66.4735 H       1  ZINC000549381790    0.0800
     33 H33        -9.0262   -0.7973   66.0394 H       1  ZINC000549381790    0.0700
     34 H34        -6.4461   -0.0220   64.6021 H       1  ZINC000549381790    0.0800
     35 H35        -7.7263   -1.0985   63.9862 H       1  ZINC000549381790    0.0800
     36 H36        -7.9156   -0.6909   61.8606 H       1  ZINC000549381790    0.0900
     37 H37        -9.3571   -1.2205   62.7604 H       1  ZINC000549381790    0.0900
     38 H38        -9.9393   -2.4574   59.5582 H       1  ZINC000549381790    0.1400
     39 H39       -11.9652   -3.8435   59.3759 H       1  ZINC000549381790    0.1400
     40 H40       -14.2788   -3.8050   58.5451 H       1  ZINC000549381790    0.0700
     41 H41       -15.8446   -3.9263   59.3830 H       1  ZINC000549381790    0.0700
     42 H42       -15.5510   -1.2545   59.7105 H       1  ZINC000549381790    0.1200
     43 H43       -14.2100   -0.2363   57.8128 H       1  ZINC000549381790    0.1000
     44 H44       -13.6748   -1.9211   57.2871 H       1  ZINC000549381790    0.1000
     45 H45       -16.0977   -2.5760   56.9194 H       1  ZINC000549381790    0.1000
     46 H46       -16.6328   -0.8912   57.4452 H       1  ZINC000549381790    0.1000
     47 H47       -12.0091    0.2282   62.1583 H       1  ZINC000549381790    0.1500
@<TRIPOS>BOND
     1     1     2    1
     2     1    25    1
     3     1    26    1
     4     1    27    1
     5     2     3    1
     6     2     8    1
     7     2     4    1
     8     4     5    1
     9     4    28    1
    10     4    29    1
    11     5     6    1
    12     5    30    1
    13     5    31    1
    14     6     7    1
    15     6    32    1
    16     6    33    1
    17     7     8    1
    18     7    34    1
    19     7    35    1
    20     8     9   am
    21     9    10    2
    22     9    11    1
    23    11    12    1
    24    11    36    1
    25    11    37    1
    26    12    13    1
    27    13    24   ar
    28    13    14   ar
    29    14    15   ar
    30    14    38    1
    31    15    16   ar
    32    15    39    1
    33    16    17    1
    34    16    22   ar
    35    17    18    1
    36    18    19    1
    37    18    40    1
    38    18    41    1
    39    19    21    1
    40    19    20    1
    41    19    42    1
    42    20    21    1
    43    20    43    1
    44    20    44    1
    45    21    45    1
    46    21    46    1
    47    22    23    1
    48    22    24   ar
    49    24    47    1
@<TRIPOS>SUBSTRUCTURE
     1 ZINC000549381790        1 TEMP              0 ****  ****    0 ROOT


##########                                Name:    ZINC000866717058
##########                DOCK_Rotatable_Bonds:                   7
##########                         Heavy_Atoms:                  25
##########                    Molecular_Weight:             380.388
##########                DOCK_Rotatable_Bonds:                   7
##########                       Formal_Charge:                0.04
##########                     HBond_Acceptors:                  10
##########                        HBond_Donors:                   1
##########                         Heavy_Atoms:                  25
##########                          Grid_Score:          -27.439270
##########                     Grid_vdw_energy:          -26.686901
##########                      Grid_es_energy:           -0.752370
##########           Internal_energy_repulsive:            8.901475

@<TRIPOS>MOLECULE
ZINC000866717058
 44 45 1 0 0
SMALL
USER_CHARGES


@<TRIPOS>ATOM
      1 C1         -7.6148    0.7837   55.6616 C.3     1  ZINC000866717058   -0.1100
      2 C2         -8.8183    0.0511   55.1271 C.ar    1  ZINC000866717058    0.2400
      3 N3         -9.2472   -1.0322   55.7398 N.ar    1  ZINC000866717058   -0.5500
      4 C4        -10.3002   -1.7084   55.3063 C.ar    1  ZINC000866717058    0.3500
      5 O5        -10.7022   -2.8175   55.9729 O.3     1  ZINC000866717058   -0.2800
      6 C6        -11.5438   -2.6209   57.1110 C.3     1  ZINC000866717058    0.0500
      7 H7        -11.7237   -1.5549   57.2502 H       1  ZINC000866717058    0.1300
      8 C8        -12.8768   -3.3386   56.8896 C.3     1  ZINC000866717058   -0.1700
      9 C9        -10.8592   -3.1893   58.3557 C.3     1  ZINC000866717058    0.4600
     10 F10       -11.6474   -2.9284   59.4816 F       1  ZINC000866717058   -0.1700
     11 F11       -10.6981   -4.5713   58.2093 F       1  ZINC000866717058   -0.1700
     12 F12        -9.6059   -2.5880   58.5143 F       1  ZINC000866717058   -0.1700
     13 C13       -10.9999   -1.2961   54.1767 C.ar    1  ZINC000866717058   -0.1900
     14 C14       -10.5862   -0.1656   53.5022 C.ar    1  ZINC000866717058    0.0000
     15 C15        -9.4709    0.5307   53.9906 C.ar    1  ZINC000866717058   -0.2300
     16 C16        -8.9880    1.7461   53.3062 C.2     1  ZINC000866717058    0.5800
     17 O17        -9.0526    2.8244   53.8643 O.2     1  ZINC000866717058   -0.5200
     18 N18        -8.4755    1.6607   52.0625 N.am    1  ZINC000866717058   -0.7400
     19 C19        -7.9978    2.8673   51.3827 C.3     1  ZINC000866717058    0.1400
     20 C20        -6.9803    2.4782   50.3083 C.3     1  ZINC000866717058   -0.5700
     21 H21        -7.4757    1.9992   49.4638 H       1  ZINC000866717058    0.1500
     22 C22        -6.1719    3.7164   49.8419 C.3     1  ZINC000866717058   -0.1100
     23 C23        -4.8958    3.1810   49.1690 C.3     1  ZINC000866717058   -0.1200
     24 C24        -4.2729    2.1027   50.0777 C.3     1  ZINC000866717058   -0.5900
     25 S25        -5.6829    1.3875   51.0055 S.o2    1  ZINC000866717058    2.3700
     26 O26        -5.5280    1.6706   52.3894 O.2     1  ZINC000866717058   -0.9200
     27 O27        -5.9010    0.0512   50.5743 O.2     1  ZINC000866717058   -0.9300
     28 H28        -7.9430    1.6119   56.2897 H       1  ZINC000866717058    0.0900
     29 H29        -7.0054    0.0995   56.2519 H       1  ZINC000866717058    0.0700
     30 H30        -7.0255    1.1700   54.8299 H       1  ZINC000866717058    0.1100
     31 H31       -13.5187   -3.1887   57.7578 H       1  ZINC000866717058    0.0900
     32 H32       -13.3645   -2.9337   56.0030 H       1  ZINC000866717058    0.0900
     33 H33       -12.6969   -4.4045   56.7506 H       1  ZINC000866717058    0.0800
     34 H34       -11.8572   -1.8548   53.8313 H       1  ZINC000866717058    0.1600
     35 H35       -11.1105    0.1768   52.6223 H       1  ZINC000866717058    0.1500
     36 H36        -8.4229    0.8003   51.6177 H       1  ZINC000866717058    0.4000
     37 H37        -8.8398    3.3795   50.9172 H       1  ZINC000866717058    0.1000
     38 H38        -7.5252    3.5299   52.1077 H       1  ZINC000866717058    0.1000
     39 H39        -6.7559    4.2959   49.1270 H       1  ZINC000866717058    0.1100
     40 H40        -5.9098    4.3358   50.6996 H       1  ZINC000866717058    0.0900
     41 H41        -5.1467    2.7450   48.2021 H       1  ZINC000866717058    0.0900
     42 H42        -4.1861    3.9962   49.0281 H       1  ZINC000866717058    0.1000
     43 H43        -3.7899    1.3330   49.4757 H       1  ZINC000866717058    0.1400
     44 H44        -3.5555    2.5537   50.7634 H       1  ZINC000866717058    0.1400
@<TRIPOS>BOND
     1     1     2    1
     2     1    28    1
     3     1    29    1
     4     1    30    1
     5     2    15   ar
     6     2     3   ar
     7     3     4   ar
     8     4     5    1
     9     4    13   ar
    10     5     6    1
    11     6     7    1
    12     6     8    1
    13     6     9    1
    14     8    31    1
    15     8    32    1
    16     8    33    1
    17     9    10    1
    18     9    11    1
    19     9    12    1
    20    13    14   ar
    21    13    34    1
    22    14    15   ar
    23    14    35    1
    24    15    16    1
    25    16    17    2
    26    16    18   am
    27    18    19    1
    28    18    36    1
    29    19    20    1
    30    19    37    1
    31    19    38    1
    32    20    21    1
    33    20    25    1
    34    20    22    1
    35    22    23    1
    36    22    39    1
    37    22    40    1
    38    23    24    1
    39    23    41    1
    40    23    42    1
    41    24    25    1
    42    24    43    1
    43    24    44    1
    44    25    26    2
    45    25    27    2
@<TRIPOS>SUBSTRUCTURE
     1 ZINC000866717058        1 TEMP              0 ****  ****    0 ROOT


##########                                Name:    ZINC000364058410
##########                DOCK_Rotatable_Bonds:                   5
##########                         Heavy_Atoms:                  25
##########                    Molecular_Weight:             358.464
##########                DOCK_Rotatable_Bonds:                   5
##########                       Formal_Charge:           0.0100002
##########                     HBond_Acceptors:                   7
##########                        HBond_Donors:                   0
##########                         Heavy_Atoms:                  25
##########                          Grid_Score:          -27.416136
##########                     Grid_vdw_energy:          -25.846153
##########                      Grid_es_energy:           -1.569982
##########           Internal_energy_repulsive:           64.026985

@<TRIPOS>MOLECULE
ZINC000364058410
 47 50 1 0 0
SMALL
USER_CHARGES


@<TRIPOS>ATOM
      1 C1          1.1215    4.2260   55.6261 C.3     1  ZINC000364058410   -0.0700
      2 C2          2.1006    3.5036   54.7369 C.2     1  ZINC000364058410   -0.2500
      3 C3          1.7884    2.7409   53.6637 C.2     1  ZINC000364058410    0.0800
      4 N4          2.9419    2.2742   53.1413 N.pl3   1  ZINC000364058410   -0.3600
      5 C5          3.0676    1.4065   51.9676 C.3     1  ZINC000364058410    0.1300
      6 C6          1.7191    0.9025   51.4221 C.3     1  ZINC000364058410    0.1100
      7 N7          1.7313    2.1033   50.5642 N.am    1  ZINC000364058410   -0.6500
      8 C8          0.7802    2.8390   49.9556 C.2     1  ZINC000364058410    0.5600
      9 O9          1.0929    3.8039   49.2907 O.2     1  ZINC000364058410   -0.5000
     10 C10        -0.6718    2.4629   50.1013 C.3     1  ZINC000364058410    0.1400
     11 H11        -0.8004    1.8372   50.9846 H       1  ZINC000364058410    0.0900
     12 C12        -1.5192    3.7313   50.2430 C.3     1  ZINC000364058410   -0.1200
     13 C13        -3.0017    3.3514   50.2505 C.3     1  ZINC000364058410   -0.1200
     14 C14        -3.3633    2.6742   48.9266 C.3     1  ZINC000364058410   -0.1400
     15 C15        -2.5368    1.3939   48.7701 C.3     1  ZINC000364058410    0.1000
     16 N16        -1.1122    1.7273   48.9082 N.am    1  ZINC000364058410   -0.6000
     17 C17        -0.2278    1.3696   47.9561 C.2     1  ZINC000364058410    0.5900
     18 O18         0.9493    1.6517   48.0822 O.2     1  ZINC000364058410   -0.4900
     19 C19        -0.6837    0.6409   46.7688 C.2     1  ZINC000364058410   -0.2600
     20 C20        -1.2347   -0.6095   46.7693 C.2     1  ZINC000364058410   -0.0600
     21 C21        -1.5735   -1.0548   45.5135 C.2     1  ZINC000364058410   -0.1400
     22 C22        -1.3100   -0.2003   44.5180 C.2     1  ZINC000364058410   -0.2400
     23 S23        -0.6163    1.2389   45.1167 S.3     1  ZINC000364058410    0.2100
     24 C24         3.2034    2.1748   50.6405 C.3     1  ZINC000364058410    0.0900
     25 N25         3.9978    2.7663   53.9192 N.2     1  ZINC000364058410   -0.3000
     26 C26         3.4927    3.5079   54.8716 C.2     1  ZINC000364058410    0.0500
     27 H27         0.9421    5.2262   55.2319 H       1  ZINC000364058410    0.0600
     28 H28         0.1823    3.6737   55.6567 H       1  ZINC000364058410    0.0600
     29 H29         1.5320    4.3007   56.6332 H       1  ZINC000364058410    0.0600
     30 H30         0.7942    2.5414   53.2918 H       1  ZINC000364058410    0.1700
     31 H31         3.8115    0.6206   52.0979 H       1  ZINC000364058410    0.1300
     32 H32         1.7914   -0.0337   50.8686 H       1  ZINC000364058410    0.1100
     33 H33         0.9190    0.8996   52.1625 H       1  ZINC000364058410    0.0900
     34 H34        -1.2678    4.2344   51.1766 H       1  ZINC000364058410    0.0800
     35 H35        -1.3188    4.3982   49.4044 H       1  ZINC000364058410    0.0800
     36 H36        -3.1964    2.6650   51.0746 H       1  ZINC000364058410    0.0700
     37 H37        -3.6061    4.2497   50.3759 H       1  ZINC000364058410    0.0800
     38 H38        -4.4244    2.4249   48.9233 H       1  ZINC000364058410    0.0800
     39 H39        -3.1455    3.3511   48.1004 H       1  ZINC000364058410    0.0700
     40 H40        -2.8194    0.6798   49.5436 H       1  ZINC000364058410    0.0800
     41 H41        -2.7172    0.9606   47.7863 H       1  ZINC000364058410    0.0900
     42 H42        -1.3884   -1.1904   47.6667 H       1  ZINC000364058410    0.1500
     43 H43        -2.0194   -2.0236   45.3430 H       1  ZINC000364058410    0.1500
     44 H44        -1.5133   -0.3942   43.4751 H       1  ZINC000364058410    0.1700
     45 H45         3.5886    3.1878   50.7568 H       1  ZINC000364058410    0.0900
     46 H46         3.7117    1.6124   49.8573 H       1  ZINC000364058410    0.1100
     47 H47         4.0535    4.0274   55.6345 H       1  ZINC000364058410    0.1800
@<TRIPOS>BOND
     1     1     2    1
     2     1    27    1
     3     1    28    1
     4     1    29    1
     5     2    26    1
     6     2     3    2
     7     3     4    1
     8     3    30    1
     9     4     5    1
    10     4    25    1
    11     5    24    1
    12     5     6    1
    13     5    31    1
    14     6     7    1
    15     6    32    1
    16     6    33    1
    17     7     8   am
    18     7    24    1
    19     8     9    2
    20     8    10    1
    21    10    11    1
    22    10    16    1
    23    10    12    1
    24    12    13    1
    25    12    34    1
    26    12    35    1
    27    13    14    1
    28    13    36    1
    29    13    37    1
    30    14    15    1
    31    14    38    1
    32    14    39    1
    33    15    16    1
    34    15    40    1
    35    15    41    1
    36    16    17   am
    37    17    18    2
    38    17    19    1
    39    19    23    1
    40    19    20    2
    41    20    21    1
    42    20    42    1
    43    21    22    2
    44    21    43    1
    45    22    23    1
    46    22    44    1
    47    24    45    1
    48    24    46    1
    49    25    26    2
    50    26    47    1
@<TRIPOS>SUBSTRUCTURE
     1 ZINC000364058410        1 TEMP              0 ****  ****    0 ROOT


##########                                Name:    ZINC000676564986
##########                DOCK_Rotatable_Bonds:                   5
##########                         Heavy_Atoms:                  25
##########                    Molecular_Weight:             347.444
##########                DOCK_Rotatable_Bonds:                   5
##########                       Formal_Charge:          -0.0100005
##########                     HBond_Acceptors:                   6
##########                        HBond_Donors:                   1
##########                         Heavy_Atoms:                  25
##########                          Grid_Score:          -27.394291
##########                     Grid_vdw_energy:          -26.875538
##########                      Grid_es_energy:           -0.518754
##########           Internal_energy_repulsive:            8.939783

@<TRIPOS>MOLECULE
ZINC000676564986
 42 45 1 0 0
SMALL
USER_CHARGES


@<TRIPOS>ATOM
      1 C1          2.9842    1.2705   42.8079 C.3     1  ZINC000676564986    0.0800
      2 N2          1.9676    1.4668   43.8444 N.pl3   1  ZINC000676564986   -0.4800
      3 C3          2.0626    2.2986   44.9201 C.2     1  ZINC000676564986    0.2500
      4 N4          0.9782    2.2253   45.6360 N.2     1  ZINC000676564986   -0.4600
      5 C5          0.1209    1.3442   45.0668 C.ar    1  ZINC000676564986   -0.1100
      6 C6         -1.1638    0.8708   45.3827 C.ar    1  ZINC000676564986    0.5100
      7 N7         -1.8286    1.3246   46.5085 N.pl3   1  ZINC000676564986   -0.6900
      8 C8         -1.0763    1.6443   47.7242 C.3     1  ZINC000676564986    0.1700
      9 C9         -2.0314    2.0771   48.8067 C.ar    1  ZINC000676564986   -0.0800
     10 C10        -2.4071    1.1834   49.7929 C.ar    1  ZINC000676564986   -0.1100
     11 C11        -3.2820    1.5764   50.7863 C.ar    1  ZINC000676564986   -0.0700
     12 C12        -3.7852    2.8718   50.7941 C.ar    1  ZINC000676564986   -0.1300
     13 S13        -4.9014    3.3780   52.0599 S.3     1  ZINC000676564986   -0.0100
     14 C14        -5.8137    1.9083   52.3949 C.ar    1  ZINC000676564986   -0.1000
     15 C15        -6.1235    1.5643   53.7053 C.ar    1  ZINC000676564986   -0.1200
     16 C16        -6.8391    0.4121   53.9640 C.ar    1  ZINC000676564986   -0.1000
     17 C17        -7.2474   -0.3993   52.9211 C.ar    1  ZINC000676564986   -0.1200
     18 C18        -6.9407   -0.0602   51.6158 C.ar    1  ZINC000676564986   -0.1000
     19 C19        -6.2300    1.0933   51.3492 C.ar    1  ZINC000676564986   -0.1000
     20 C20        -3.4054    3.7672   49.8014 C.ar    1  ZINC000676564986   -0.0700
     21 C21        -2.5257    3.3689   48.8144 C.ar    1  ZINC000676564986   -0.1100
     22 N22        -1.7259   -0.0225   44.5750 N.ar    1  ZINC000676564986   -0.5900
     23 C23        -1.0993   -0.4607   43.4984 C.ar    1  ZINC000676564986    0.3600
     24 N24         0.1045   -0.0460   43.1635 N.ar    1  ZINC000676564986   -0.5600
     25 C25         0.7430    0.8513   43.9072 C.ar    1  ZINC000676564986    0.3000
     26 H26         2.8240    1.9864   42.0017 H       1  ZINC000676564986    0.0800
     27 H27         3.9747    1.4224   43.2370 H       1  ZINC000676564986    0.0900
     28 H28         2.9104    0.2570   42.4138 H       1  ZINC000676564986    0.0900
     29 H29         2.9125    2.9257   45.1454 H       1  ZINC000676564986    0.2200
     30 H30        -2.7926    1.4309   46.4926 H       1  ZINC000676564986    0.4200
     31 H31        -0.5280    0.7622   48.0548 H       1  ZINC000676564986    0.0800
     32 H32        -0.3741    2.4514   47.5154 H       1  ZINC000676564986    0.0800
     33 H33        -2.0159    0.1767   49.7861 H       1  ZINC000676564986    0.1300
     34 H34        -3.5752    0.8779   51.5560 H       1  ZINC000676564986    0.1400
     35 H35        -5.8048    2.1973   54.5202 H       1  ZINC000676564986    0.1200
     36 H36        -7.0800    0.1440   54.9821 H       1  ZINC000676564986    0.1300
     37 H37        -7.8065   -1.3002   53.1265 H       1  ZINC000676564986    0.1300
     38 H38        -7.2610   -0.6961   50.8038 H       1  ZINC000676564986    0.1300
     39 H39        -5.9912    1.3577   50.3296 H       1  ZINC000676564986    0.1300
     40 H40        -3.7945    4.7747   49.8044 H       1  ZINC000676564986    0.1300
     41 H41        -2.2302    4.0641   48.0427 H       1  ZINC000676564986    0.1300
     42 H42        -1.5925   -1.1869   42.8693 H       1  ZINC000676564986    0.2000
@<TRIPOS>BOND
     1     1     2    1
     2     1    26    1
     3     1    27    1
     4     1    28    1
     5     2    25    1
     6     2     3    1
     7     3     4    2
     8     3    29    1
     9     4     5    1
    10     5    25   ar
    11     5     6   ar
    12     6     7    1
    13     6    22   ar
    14     7     8    1
    15     7    30    1
    16     8     9    1
    17     8    31    1
    18     8    32    1
    19     9    21   ar
    20     9    10   ar
    21    10    11   ar
    22    10    33    1
    23    11    12   ar
    24    11    34    1
    25    12    13    1
    26    12    20   ar
    27    13    14    1
    28    14    19   ar
    29    14    15   ar
    30    15    16   ar
    31    15    35    1
    32    16    17   ar
    33    16    36    1
    34    17    18   ar
    35    17    37    1
    36    18    19   ar
    37    18    38    1
    38    19    39    1
    39    20    21   ar
    40    20    40    1
    41    21    41    1
    42    22    23   ar
    43    23    24   ar
    44    23    42    1
    45    24    25   ar
@<TRIPOS>SUBSTRUCTURE
     1 ZINC000676564986        1 TEMP              0 ****  ****    0 ROOT


##########                                Name:    ZINC000506156755
##########                DOCK_Rotatable_Bonds:                   7
##########                         Heavy_Atoms:                  30
##########                    Molecular_Weight:             400.434
##########                DOCK_Rotatable_Bonds:                   7
##########                       Formal_Charge:          -0.0200001
##########                     HBond_Acceptors:                   6
##########                        HBond_Donors:                   1
##########                         Heavy_Atoms:                  30
##########                          Grid_Score:          -27.380732
##########                     Grid_vdw_energy:          -27.254074
##########                      Grid_es_energy:           -0.126658
##########           Internal_energy_repulsive:           13.910068

@<TRIPOS>MOLECULE
ZINC000506156755
 50 53 1 0 0
SMALL
USER_CHARGES


@<TRIPOS>ATOM
      1 C1        -15.4043   -0.9967   59.3640 C.3     1  ZINC000506156755   -0.1600
      2 C2        -14.1257   -1.8086   59.5797 C.3     1  ZINC000506156755    0.1900
      3 H3        -14.1724   -2.3103   60.5462 H       1  ZINC000506156755    0.1000
      4 N4        -12.9672   -0.9123   59.5502 N.am    1  ZINC000506156755   -0.7200
      5 C5        -11.8005   -1.3006   60.1019 C.2     1  ZINC000506156755    0.5000
      6 O6        -11.7100   -2.3915   60.6240 O.2     1  ZINC000506156755   -0.5200
      7 C7        -10.6083   -0.3793   60.0700 C.3     1  ZINC000506156755    0.0900
      8 N8        -10.0796   -0.2178   61.4266 N.am    1  ZINC000506156755   -0.5600
      9 C9         -8.8708   -0.6499   61.8288 C.2     1  ZINC000506156755    0.5800
     10 O10        -8.0575   -1.2269   61.1357 O.2     1  ZINC000506156755   -0.4600
     11 C11        -8.6978   -0.3042   63.2556 C.ar    1  ZINC000506156755   -0.1400
     12 C12        -7.6839   -0.4923   64.1805 C.ar    1  ZINC000506156755   -0.0400
     13 C13        -7.8442   -0.0331   65.4790 C.ar    1  ZINC000506156755   -0.0900
     14 C14        -9.0076    0.6102   65.8559 C.ar    1  ZINC000506156755   -0.0900
     15 C15       -10.0309    0.8055   64.9408 C.ar    1  ZINC000506156755   -0.0400
     16 C16        -9.8848    0.3521   63.6401 C.ar    1  ZINC000506156755   -0.1400
     17 C17       -10.7366    0.3873   62.4325 C.2     1  ZINC000506156755    0.5800
     18 O18       -11.8450    0.8787   62.3609 O.2     1  ZINC000506156755   -0.4600
     19 C19       -13.9931   -2.8369   58.4859 C.ar    1  ZINC000506156755   -0.1200
     20 C20       -14.1228   -4.1800   58.7806 C.ar    1  ZINC000506156755   -0.0800
     21 C21       -14.0017   -5.1241   57.7774 C.ar    1  ZINC000506156755   -0.1400
     22 C22       -13.7509   -4.7265   56.4772 C.ar    1  ZINC000506156755   -0.0800
     23 C23       -13.6203   -3.3842   56.1771 C.ar    1  ZINC000506156755   -0.1900
     24 C24       -13.7465   -2.4347   57.1808 C.ar    1  ZINC000506156755    0.1300
     25 O25       -13.6190   -1.1139   56.8882 O.3     1  ZINC000506156755   -0.2500
     26 C26       -12.6742   -0.7495   55.9821 C.ar    1  ZINC000506156755    0.0800
     27 C27       -13.0194    0.0484   54.9007 C.ar    1  ZINC000506156755   -0.1400
     28 C28       -12.0569    0.4173   53.9810 C.ar    1  ZINC000506156755   -0.1000
     29 C29       -10.7506   -0.0080   54.1373 C.ar    1  ZINC000506156755   -0.1200
     30 C30       -10.4040   -0.8033   55.2140 C.ar    1  ZINC000506156755   -0.1000
     31 C31       -11.3613   -1.1703   56.1397 C.ar    1  ZINC000506156755   -0.1200
     32 H32       -15.5002   -0.2529   60.1551 H       1  ZINC000506156755    0.0700
     33 H33       -15.3575   -0.4950   58.3974 H       1  ZINC000506156755    0.0600
     34 H34       -16.2663   -1.6636   59.3859 H       1  ZINC000506156755    0.0700
     35 H35       -13.0399   -0.0393   59.1336 H       1  ZINC000506156755    0.4000
     36 H36        -9.8372   -0.8051   59.4278 H       1  ZINC000506156755    0.1300
     37 H37       -10.9105    0.5924   59.6796 H       1  ZINC000506156755    0.1300
     38 H38        -6.7726   -0.9948   63.8917 H       1  ZINC000506156755    0.1400
     39 H39        -7.0544   -0.1796   66.2009 H       1  ZINC000506156755    0.1400
     40 H40        -9.1209    0.9631   66.8703 H       1  ZINC000506156755    0.1400
     41 H41       -10.9379    1.3093   65.2408 H       1  ZINC000506156755    0.1400
     42 H42       -14.3184   -4.4934   59.7955 H       1  ZINC000506156755    0.1300
     43 H43       -14.1030   -6.1739   58.0100 H       1  ZINC000506156755    0.1300
     44 H44       -13.6564   -5.4657   55.6956 H       1  ZINC000506156755    0.1300
     45 H45       -13.4240   -3.0741   55.1614 H       1  ZINC000506156755    0.1300
     46 H46       -14.0396    0.3806   54.7780 H       1  ZINC000506156755    0.1300
     47 H47       -12.3252    1.0381   53.1390 H       1  ZINC000506156755    0.1300
     48 H48        -9.9997    0.2812   53.4169 H       1  ZINC000506156755    0.1300
     49 H49        -9.3829   -1.1341   55.3338 H       1  ZINC000506156755    0.1300
     50 H50       -11.0901   -1.7912   56.9807 H       1  ZINC000506156755    0.1300
@<TRIPOS>BOND
     1     1     2    1
     2     1    32    1
     3     1    33    1
     4     1    34    1
     5     2     3    1
     6     2     4    1
     7     2    19    1
     8     4     5   am
     9     4    35    1
    10     5     6    2
    11     5     7    1
    12     7     8    1
    13     7    36    1
    14     7    37    1
    15     8    17   am
    16     8     9   am
    17     9    10    2
    18     9    11    1
    19    11    16   ar
    20    11    12   ar
    21    12    13   ar
    22    12    38    1
    23    13    14   ar
    24    13    39    1
    25    14    15   ar
    26    14    40    1
    27    15    16   ar
    28    15    41    1
    29    16    17    1
    30    17    18    2
    31    19    24   ar
    32    19    20   ar
    33    20    21   ar
    34    20    42    1
    35    21    22   ar
    36    21    43    1
    37    22    23   ar
    38    22    44    1
    39    23    24   ar
    40    23    45    1
    41    24    25    1
    42    25    26    1
    43    26    31   ar
    44    26    27   ar
    45    27    28   ar
    46    27    46    1
    47    28    29   ar
    48    28    47    1
    49    29    30   ar
    50    29    48    1
    51    30    31   ar
    52    30    49    1
    53    31    50    1
@<TRIPOS>SUBSTRUCTURE
     1 ZINC000506156755        1 TEMP              0 ****  ****    0 ROOT


##########                                Name:    ZINC000288921983
##########                DOCK_Rotatable_Bonds:                   6
##########                         Heavy_Atoms:                  26
##########                    Molecular_Weight:             356.428
##########                DOCK_Rotatable_Bonds:                   6
##########                       Formal_Charge:           0.0199997
##########                     HBond_Acceptors:                   8
##########                        HBond_Donors:                   1
##########                         Heavy_Atoms:                  26
##########                          Grid_Score:          -27.376236
##########                     Grid_vdw_energy:          -27.478624
##########                      Grid_es_energy:            0.102388
##########           Internal_energy_repulsive:           59.866394

@<TRIPOS>MOLECULE
ZINC000288921983
 50 53 1 0 0
SMALL
USER_CHARGES


@<TRIPOS>ATOM
      1 C1         -8.4865    0.2705   65.2004 C.3     1  ZINC000288921983   -0.1400
      2 C2         -8.4583    0.9824   63.8464 C.3     1  ZINC000288921983   -0.0500
      3 C3         -9.1473    0.1269   62.8146 C.ar    1  ZINC000288921983    0.3000
      4 N4        -10.4505    0.2419   62.6551 N.ar    1  ZINC000288921983   -0.5000
      5 C5        -11.0923   -0.4908   61.7603 C.ar    1  ZINC000288921983    0.1300
      6 C6        -10.3707   -1.3921   60.9823 C.ar    1  ZINC000288921983    0.0500
      7 N7        -11.0107   -2.1864   60.0234 N.am    1  ZINC000288921983   -0.6700
      8 C8        -10.8507   -1.9200   58.7120 C.2     1  ZINC000288921983    0.7100
      9 O9        -10.1507   -0.9896   58.3616 O.2     1  ZINC000288921983   -0.5500
     10 N10       -11.4668   -2.6846   57.7889 N.am    1  ZINC000288921983   -0.6200
     11 C11       -12.3160   -3.8121   58.1967 C.3     1  ZINC000288921983    0.1100
     12 C12       -13.6905   -3.6576   57.5382 C.3     1  ZINC000288921983   -0.1400
     13 C13       -13.5137   -3.5193   56.0243 C.3     1  ZINC000288921983   -0.1200
     14 C14       -12.6877   -2.2679   55.7177 C.3     1  ZINC000288921983   -0.1300
     15 C15       -11.3068   -2.4029   56.3558 C.3     1  ZINC000288921983    0.2700
     16 H16       -10.7660   -3.2245   55.8860 H       1  ZINC000288921983    0.1100
     17 C17       -10.5373   -1.1204   56.1710 C.2     1  ZINC000288921983    0.1700
     18 N18       -11.0362    0.0829   56.1585 N.2     1  ZINC000288921983   -0.2500
     19 N19       -10.0896    0.9357   55.9791 N.2     1  ZINC000288921983   -0.2700
     20 C20        -8.9546    0.3054   55.8712 C.2     1  ZINC000288921983    0.1800
     21 C21        -7.6026    0.9343   55.6530 C.3     1  ZINC000288921983   -0.0300
     22 C22        -7.0682    0.7651   54.2211 C.3     1  ZINC000288921983   -0.1200
     23 C23        -7.7930    2.0776   53.8795 C.3     1  ZINC000288921983   -0.1400
     24 C24        -7.6643    2.4441   55.3675 C.3     1  ZINC000288921983   -0.1200
     25 O25        -9.2100   -1.0079   55.9949 O.3     1  ZINC000288921983   -0.2200
     26 C26        -8.9959   -1.4824   61.1825 C.ar    1  ZINC000288921983    0.1600
     27 N27        -8.4282   -0.7104   62.0943 N.ar    1  ZINC000288921983   -0.5000
     28 H28        -7.9882    0.8893   65.9466 H       1  ZINC000288921983    0.0700
     29 H29        -9.5207    0.1015   65.5005 H       1  ZINC000288921983    0.0600
     30 H30        -7.9708   -0.6863   65.1186 H       1  ZINC000288921983    0.0600
     31 H31        -8.9739    1.9392   63.9280 H       1  ZINC000288921983    0.0900
     32 H32        -7.4241    1.1514   63.5462 H       1  ZINC000288921983    0.0900
     33 H33       -12.1605   -0.3916   61.6353 H       1  ZINC000288921983    0.1700
     34 H34       -11.5692   -2.9286   60.3030 H       1  ZINC000288921983    0.4100
     35 H35       -11.8598   -4.7483   57.8749 H       1  ZINC000288921983    0.0800
     36 H36       -12.4282   -3.8115   59.2809 H       1  ZINC000288921983    0.0800
     37 H37       -14.2985   -4.5360   57.7547 H       1  ZINC000288921983    0.0900
     38 H38       -14.1835   -2.7678   57.9297 H       1  ZINC000288921983    0.0700
     39 H39       -12.9985   -4.3983   55.6370 H       1  ZINC000288921983    0.0700
     40 H40       -14.4918   -3.4339   55.5508 H       1  ZINC000288921983    0.0800
     41 H41       -12.5820   -2.1573   54.6385 H       1  ZINC000288921983    0.0900
     42 H42       -13.1903   -1.3912   56.1263 H       1  ZINC000288921983    0.0900
     43 H43        -6.8811    0.6650   56.4245 H       1  ZINC000288921983    0.1000
     44 H44        -5.9828    0.8342   54.1491 H       1  ZINC000288921983    0.1000
     45 H45        -7.4732   -0.1047   53.7039 H       1  ZINC000288921983    0.0800
     46 H46        -7.2241    2.7312   53.2182 H       1  ZINC000288921983    0.0700
     47 H47        -8.8229    1.9353   53.5524 H       1  ZINC000288921983    0.1000
     48 H48        -8.5506    2.9298   55.7758 H       1  ZINC000288921983    0.0700
     49 H49        -6.7418    2.9723   55.6089 H       1  ZINC000288921983    0.1000
     50 H50        -8.4011   -2.1697   60.5992 H       1  ZINC000288921983    0.1800
@<TRIPOS>BOND
     1     1     2    1
     2     1    28    1
     3     1    29    1
     4     1    30    1
     5     2     3    1
     6     2    31    1
     7     2    32    1
     8     3    27   ar
     9     3     4   ar
    10     4     5   ar
    11     5     6   ar
    12     5    33    1
    13     6     7    1
    14     6    26   ar
    15     7     8   am
    16     7    34    1
    17     8     9    2
    18     8    10   am
    19    10    15    1
    20    10    11    1
    21    11    12    1
    22    11    35    1
    23    11    36    1
    24    12    13    1
    25    12    37    1
    26    12    38    1
    27    13    14    1
    28    13    39    1
    29    13    40    1
    30    14    15    1
    31    14    41    1
    32    14    42    1
    33    15    16    1
    34    15    17    1
    35    17    25    1
    36    17    18    2
    37    18    19    1
    38    19    20    2
    39    20    21    1
    40    20    25    1
    41    21    24    1
    42    21    22    1
    43    21    43    1
    44    22    23    1
    45    22    44    1
    46    22    45    1
    47    23    24    1
    48    23    46    1
    49    23    47    1
    50    24    48    1
    51    24    49    1
    52    26    27   ar
    53    26    50    1
@<TRIPOS>SUBSTRUCTURE
     1 ZINC000288921983        1 TEMP              0 ****  ****    0 ROOT


##########                                Name:    ZINC001345966764
##########                DOCK_Rotatable_Bonds:                  10
##########                         Heavy_Atoms:                  22
##########                    Molecular_Weight:             333.258
##########                DOCK_Rotatable_Bonds:                  10
##########                       Formal_Charge:           0.0099997
##########                     HBond_Acceptors:                  11
##########                        HBond_Donors:                   4
##########                         Heavy_Atoms:                  22
##########                          Grid_Score:          -27.359976
##########                     Grid_vdw_energy:          -26.986828
##########                      Grid_es_energy:           -0.373149
##########           Internal_energy_repulsive:            7.243682

@<TRIPOS>MOLECULE
ZINC001345966764
 38 38 1 0 0
SMALL
USER_CHARGES


@<TRIPOS>ATOM
      1 N1         -1.7218    1.2766   44.7407 N.3     1  ZINC001345966764   -0.8400
      2 C2         -1.8750    1.7177   46.1336 C.3     1  ZINC001345966764    0.0200
      3 C3         -1.1768    0.7232   47.0632 C.3     1  ZINC001345966764    0.2800
      4 F4         -1.7866   -0.5306   46.9475 F       1  ZINC001345966764   -0.1900
      5 F5          0.1723    0.6201   46.7071 F       1  ZINC001345966764   -0.1800
      6 C6         -1.2868    1.2125   48.5086 C.3     1  ZINC001345966764    0.0800
      7 N7         -2.6914    1.1940   48.9248 N.am    1  ZINC001345966764   -0.7000
      8 C8         -3.4120    2.3330   48.9153 C.2     1  ZINC001345966764    0.5100
      9 O9         -2.8971    3.3739   48.5635 O.2     1  ZINC001345966764   -0.5100
     10 C10        -4.8454    2.3138   49.3381 C.2     1  ZINC001345966764    0.5100
     11 O11        -5.6455    3.0533   48.8038 O.2     1  ZINC001345966764   -0.5100
     12 N12        -5.2492    1.4753   50.3128 N.am    1  ZINC001345966764   -0.7000
     13 C13        -6.6546    1.4552   50.7261 C.3     1  ZINC001345966764    0.1200
     14 C14        -6.8096    0.5699   51.9643 C.3     1  ZINC001345966764    0.0600
     15 H15        -6.2174   -0.3388   51.8567 H       1  ZINC001345966764    0.0900
     16 C16        -6.3850    1.3413   53.2335 C.3     1  ZINC001345966764   -0.1400
     17 C17        -7.3828    0.8657   54.3132 C.3     1  ZINC001345966764   -0.1500
     18 C18        -8.2921   -0.1367   53.5685 C.3     1  ZINC001345966764    0.0300
     19 H19        -7.9286   -1.1548   53.7080 H       1  ZINC001345966764    0.1200
     20 C20        -9.7351   -0.0152   54.0622 C.3     1  ZINC001345966764    0.4600
     21 F21       -10.2837    1.1888   53.6077 F       1  ZINC001345966764   -0.1700
     22 F22       -10.4883   -1.0862   53.5694 F       1  ZINC001345966764   -0.1700
     23 F23        -9.7530   -0.0373   55.4609 F       1  ZINC001345966764   -0.1700
     24 O24        -8.1999    0.2416   52.1768 O.3     1  ZINC001345966764   -0.3500
     25 H25        -2.1676    1.9218   44.1059 H       1  ZINC001345966764    0.3500
     26 H26        -0.7484    1.1525   44.5057 H       1  ZINC001345966764    0.3600
     27 H27        -1.4266    2.7039   46.2538 H       1  ZINC001345966764    0.1100
     28 H28        -2.9346    1.7673   46.3845 H       1  ZINC001345966764    0.0700
     29 H29        -0.7066    0.5580   49.1589 H       1  ZINC001345966764    0.1100
     30 H30        -0.9005    2.2294   48.5783 H       1  ZINC001345966764    0.1100
     31 H31        -3.1027    0.3623   49.2072 H       1  ZINC001345966764    0.4200
     32 H32        -4.6095    0.8850   50.7407 H       1  ZINC001345966764    0.4200
     33 H33        -6.9786    2.4690   50.9615 H       1  ZINC001345966764    0.1000
     34 H34        -7.2659    1.0572   49.9161 H       1  ZINC001345966764    0.0900
     35 H35        -5.3647    1.0811   53.5152 H       1  ZINC001345966764    0.0900
     36 H36        -6.4765    2.4160   53.0758 H       1  ZINC001345966764    0.0900
     37 H37        -6.8558    0.3705   55.1287 H       1  ZINC001345966764    0.1000
     38 H38        -7.9675    1.7053   54.6893 H       1  ZINC001345966764    0.0900
@<TRIPOS>BOND
     1     1     2    1
     2     1    25    1
     3     1    26    1
     4     2     3    1
     5     2    27    1
     6     2    28    1
     7     3     4    1
     8     3     5    1
     9     3     6    1
    10     6     7    1
    11     6    29    1
    12     6    30    1
    13     7     8   am
    14     7    31    1
    15     8     9    2
    16     8    10    1
    17    10    11    2
    18    10    12   am
    19    12    13    1
    20    12    32    1
    21    13    14    1
    22    13    33    1
    23    13    34    1
    24    14    15    1
    25    14    24    1
    26    14    16    1
    27    16    17    1
    28    16    35    1
    29    16    36    1
    30    17    18    1
    31    17    37    1
    32    17    38    1
    33    18    19    1
    34    18    20    1
    35    18    24    1
    36    20    21    1
    37    20    22    1
    38    20    23    1
@<TRIPOS>SUBSTRUCTURE
     1 ZINC001345966764        1 TEMP              0 ****  ****    0 ROOT


##########                                Name:    ZINC000939075213
##########                DOCK_Rotatable_Bonds:                   7
##########                         Heavy_Atoms:                  24
##########                    Molecular_Weight:             327.426
##########                DOCK_Rotatable_Bonds:                   7
##########                       Formal_Charge:          -0.0200002
##########                     HBond_Acceptors:                   5
##########                        HBond_Donors:                   2
##########                         Heavy_Atoms:                  24
##########                          Grid_Score:          -27.359016
##########                     Grid_vdw_energy:          -27.037500
##########                      Grid_es_energy:           -0.321516
##########           Internal_energy_repulsive:           25.279123

@<TRIPOS>MOLECULE
ZINC000939075213
 49 51 1 0 0
SMALL
USER_CHARGES


@<TRIPOS>ATOM
      1 C1        -12.6351    0.2579   54.2534 C.3     1  ZINC000939075213   -0.1400
      2 C2        -11.8410   -1.0340   54.4560 C.3     1  ZINC000939075213   -0.1100
      3 H3        -11.8013   -1.6145   53.5343 H       1  ZINC000939075213    0.0900
      4 C4        -12.4326   -1.8733   55.6158 C.3     1  ZINC000939075213    0.1100
      5 N5        -11.3082   -2.6955   56.0985 N.am    1  ZINC000939075213   -0.6200
      6 C6        -11.4170   -3.8689   56.7524 C.2     1  ZINC000939075213    0.5600
      7 O7        -10.4152   -4.4651   57.1045 O.2     1  ZINC000939075213   -0.5400
      8 C8        -12.6957   -4.4084   57.0299 C.2     1  ZINC000939075213   -0.2600
      9 C9        -13.3228   -4.1024   58.1927 C.2     1  ZINC000939075213    0.0400
     10 C10       -12.6981   -3.2428   59.1298 C.2     1  ZINC000939075213    0.0000
     11 C11       -13.2718   -2.7308   60.2790 C.2     1  ZINC000939075213   -0.1500
     12 C12       -12.3045   -1.9367   60.9019 C.2     1  ZINC000939075213   -0.2200
     13 C13       -11.1826   -1.9744   60.1430 C.2     1  ZINC000939075213    0.0200
     14 N14       -11.4068   -2.7693   59.0656 N.pl3   1  ZINC000939075213   -0.5000
     15 C15       -10.0483   -2.0238   55.7475 C.3     1  ZINC000939075213    0.0900
     16 C16       -10.4139   -0.7324   54.9850 C.3     1  ZINC000939075213    0.1400
     17 H17       -10.4264    0.1235   55.6599 H       1  ZINC000939075213    0.1100
     18 N18        -9.4828   -0.5032   53.8774 N.am    1  ZINC000939075213   -0.7200
     19 C19        -8.4033    0.2836   54.0564 C.2     1  ZINC000939075213    0.5300
     20 O20        -8.2035    0.8032   55.1339 O.2     1  ZINC000939075213   -0.5300
     21 C21        -7.4445    0.5180   52.9175 C.3     1  ZINC000939075213   -0.0600
     22 C22        -7.0953   -0.8062   52.2352 C.3     1  ZINC000939075213   -0.1300
     23 C23        -8.0378    1.4862   51.9207 C.2     1  ZINC000939075213   -0.1700
     24 C24        -7.1601    2.3801   51.5542 C.2     1  ZINC000939075213   -0.1400
     25 C25        -5.8352    2.1571   52.2455 C.3     1  ZINC000939075213   -0.1100
     26 C26        -6.1622    1.2155   53.4278 C.3     1  ZINC000939075213   -0.1100
     27 H27       -12.1512    0.8659   53.4889 H       1  ZINC000939075213    0.0600
     28 H28       -13.6494    0.0150   53.9362 H       1  ZINC000939075213    0.0700
     29 H29       -12.6707    0.8133   55.1905 H       1  ZINC000939075213    0.0600
     30 H30       -12.7939   -1.2207   56.4105 H       1  ZINC000939075213    0.0700
     31 H31       -13.2386   -2.5098   55.2506 H       1  ZINC000939075213    0.0800
     32 H32       -13.1720   -5.0636   56.3156 H       1  ZINC000939075213    0.1300
     33 H33       -14.2986   -4.5141   58.4045 H       1  ZINC000939075213    0.1500
     34 H34       -14.2776   -2.9102   60.6291 H       1  ZINC000939075213    0.1400
     35 H35       -12.4294   -1.3898   61.8248 H       1  ZINC000939075213    0.1400
     36 H36       -10.2591   -1.4589   60.3616 H       1  ZINC000939075213    0.1600
     37 H37       -10.7660   -2.9662   58.3645 H       1  ZINC000939075213    0.4100
     38 H38        -9.4955   -1.7759   56.6537 H       1  ZINC000939075213    0.0800
     39 H39        -9.4475   -2.6725   55.1100 H       1  ZINC000939075213    0.0700
     40 H40        -9.6431   -0.9178   53.0153 H       1  ZINC000939075213    0.4000
     41 H41        -8.0058   -1.2712   51.8569 H       1  ZINC000939075213    0.0600
     42 H42        -6.4118   -0.6190   51.4071 H       1  ZINC000939075213    0.0700
     43 H43        -6.6198   -1.4718   52.9555 H       1  ZINC000939075213    0.0600
     44 H44        -9.0544    1.4439   51.5587 H       1  ZINC000939075213    0.1300
     45 H45        -7.3552    3.1745   50.8491 H       1  ZINC000939075213    0.1300
     46 H46        -5.1275    1.6817   51.5661 H       1  ZINC000939075213    0.0800
     47 H47        -5.4344    3.1020   52.6123 H       1  ZINC000939075213    0.0800
     48 H48        -6.3610    1.7834   54.3368 H       1  ZINC000939075213    0.0900
     49 H49        -5.3609    0.4939   53.5865 H       1  ZINC000939075213    0.0800
@<TRIPOS>BOND
     1     1     2    1
     2     1    27    1
     3     1    28    1
     4     1    29    1
     5     2     3    1
     6     2    16    1
     7     2     4    1
     8     4     5    1
     9     4    30    1
    10     4    31    1
    11     5     6   am
    12     5    15    1
    13     6     7    2
    14     6     8    1
    15     8     9    2
    16     8    32    1
    17     9    10    1
    18     9    33    1
    19    10    14    1
    20    10    11    2
    21    11    12    1
    22    11    34    1
    23    12    13    2
    24    12    35    1
    25    13    14    1
    26    13    36    1
    27    14    37    1
    28    15    16    1
    29    15    38    1
    30    15    39    1
    31    16    17    1
    32    16    18    1
    33    18    19   am
    34    18    40    1
    35    19    20    2
    36    19    21    1
    37    21    26    1
    38    21    22    1
    39    21    23    1
    40    22    41    1
    41    22    42    1
    42    22    43    1
    43    23    24    2
    44    23    44    1
    45    24    25    1
    46    24    45    1
    47    25    26    1
    48    25    46    1
    49    25    47    1
    50    26    48    1
    51    26    49    1
@<TRIPOS>SUBSTRUCTURE
     1 ZINC000939075213        1 TEMP              0 ****  ****    0 ROOT


##########                                Name:    ZINC000286156371
##########                DOCK_Rotatable_Bonds:                   7
##########                         Heavy_Atoms:                  25
##########                    Molecular_Weight:             350.418
##########                DOCK_Rotatable_Bonds:                   7
##########                       Formal_Charge:          0.00999908
##########                     HBond_Acceptors:                   8
##########                        HBond_Donors:                   2
##########                         Heavy_Atoms:                  25
##########                          Grid_Score:          -27.351040
##########                     Grid_vdw_energy:          -26.344835
##########                      Grid_es_energy:           -1.006205
##########           Internal_energy_repulsive:           14.123851

@<TRIPOS>MOLECULE
ZINC000286156371
 51 53 1 0 0
SMALL
USER_CHARGES


@<TRIPOS>ATOM
      1 C1        -13.7028   -3.7331   58.2992 C.3     1  <0>        -0.1800
      2 C2        -12.2309   -3.3208   58.2328 C.3     1  <0>         0.1400
      3 C3        -11.4231   -4.4226   57.5441 C.3     1  <0>        -0.1800
      4 C4        -12.1011   -2.0203   57.4373 C.3     1  <0>        -0.1400
      5 O5        -11.7239   -3.1179   59.5781 O.3     1  <0>        -0.3600
      6 C6        -10.5772   -2.4232   59.7010 C.2     1  <0>         0.6800
      7 O7         -9.5218   -2.9307   59.3769 O.2     1  <0>        -0.5600
      8 N8        -10.5999   -1.1650   60.1834 N.am    1  <0>        -0.5800
      9 C9        -11.8043   -0.4308   60.6124 C.3     1  <0>         0.0700
     10 C10       -11.2856    0.6314   61.6136 C.3     1  <0>         0.0900
     11 H11       -11.9623    1.4844   61.6635 H       1  <0>         0.0900
     12 O12       -11.0883    0.0611   62.9089 O.3     1  <0>        -0.5500
     13 C13        -9.9321    1.0320   60.9694 C.3     1  <0>        -0.1200
     14 C14        -9.4269   -0.2996   60.3753 C.3     1  <0>         0.1500
     15 H15        -8.7225   -0.7684   61.0623 H       1  <0>         0.1100
     16 C16        -8.7581   -0.0477   59.0485 C.2     1  <0>         0.5200
     17 O17        -7.5486   -0.0784   58.9635 O.2     1  <0>        -0.4900
     18 N18        -9.5041    0.2116   57.9563 N.am    1  <0>        -0.6300
     19 C19        -8.8822    0.4441   56.7220 C.2     1  <0>         0.3000
     20 N20        -8.9727   -0.3196   55.6567 N.2     1  <0>        -0.3200
     21 N21        -8.2098    0.2605   54.6407 N.pl3   1  <0>        -0.3600
     22 C22        -8.0165   -0.2379   53.2755 C.3     1  <0>         0.1400
     23 C23        -7.4848    0.9044   52.4035 C.3     1  <0>        -0.1400
     24 C24        -6.2806    1.5556   53.0900 C.3     1  <0>        -0.1300
     25 C25        -6.7588    2.3129   54.3358 C.3     1  <0>        -0.0600
     26 C26        -7.6573    1.3957   55.1284 C.2     1  <0>         0.0900
     27 C27        -8.0581    1.5384   56.4064 C.2     1  <0>        -0.2600
     28 H28       -13.7954   -4.6596   58.8659 H       1  <0>         0.0900
     29 H29       -14.2782   -2.9481   58.7898 H       1  <0>         0.0600
     30 H30       -14.0834   -3.8854   57.2892 H       1  <0>         0.0700
     31 H31       -11.8037   -4.5749   56.5342 H       1  <0>         0.0700
     32 H32       -10.3745   -4.1288   57.4967 H       1  <0>         0.0600
     33 H33       -11.5156   -5.3492   58.1108 H       1  <0>         0.0900
     34 H34       -12.6765   -1.2352   57.9279 H       1  <0>         0.0700
     35 H35       -11.0525   -1.7265   57.3899 H       1  <0>         0.0700
     36 H36       -12.4817   -2.1726   56.4273 H       1  <0>         0.0800
     37 H37       -12.2781    0.0526   59.7580 H       1  <0>         0.0800
     38 H38       -12.5048   -1.1056   61.1043 H       1  <0>         0.0900
     39 H39       -11.8519   -0.4293   63.2432 H       1  <0>         0.3900
     40 H40       -10.0826    1.7754   60.1866 H       1  <0>         0.1000
     41 H41        -9.2396    1.4016   61.7257 H       1  <0>         0.1100
     42 H42       -10.4714    0.2372   58.0245 H       1  <0>         0.4200
     43 H43        -7.2970   -1.0565   53.2840 H       1  <0>         0.0800
     44 H44        -8.9682   -0.5894   52.8769 H       1  <0>         0.0900
     45 H45        -7.1805    0.5098   51.4341 H       1  <0>         0.0900
     46 H46        -8.2686    1.6487   52.2625 H       1  <0>         0.0800
     47 H47        -5.5680    0.7847   53.3836 H       1  <0>         0.0700
     48 H48        -5.8018    2.2522   52.4018 H       1  <0>         0.0800
     49 H49        -5.9006    2.6017   54.9426 H       1  <0>         0.0900
     50 H50        -7.3135    3.2019   54.0354 H       1  <0>         0.0900
     51 H51        -7.7919    2.3475   57.0704 H       1  <0>         0.1700
@<TRIPOS>BOND
     1     1     2    1
     2     1    28    1
     3     1    29    1
     4     1    30    1
     5     2     3    1
     6     2     4    1
     7     2     5    1
     8     3    31    1
     9     3    32    1
    10     3    33    1
    11     4    34    1
    12     4    35    1
    13     4    36    1
    14     5     6    1
    15     6     7    2
    16     6     8   am
    17     8    14    1
    18     8     9    1
    19     9    10    1
    20     9    37    1
    21     9    38    1
    22    10    11    1
    23    10    12    1
    24    10    13    1
    25    12    39    1
    26    13    14    1
    27    13    40    1
    28    13    41    1
    29    14    15    1
    30    14    16    1
    31    16    17    2
    32    16    18   am
    33    18    19    1
    34    18    42    1
    35    19    27    1
    36    19    20    2
    37    20    21    1
    38    21    26    1
    39    21    22    1
    40    22    23    1
    41    22    43    1
    42    22    44    1
    43    23    24    1
    44    23    45    1
    45    23    46    1
    46    24    25    1
    47    24    47    1
    48    24    48    1
    49    25    26    1
    50    25    49    1
    51    25    50    1
    52    26    27    2
    53    27    51    1
@<TRIPOS>SUBSTRUCTURE
     1 <0>         1 TEMP              0 ****  ****    0 ROOT


##########                                Name:    ZINC000986832075
##########                DOCK_Rotatable_Bonds:                   7
##########                         Heavy_Atoms:                  25
##########                    Molecular_Weight:             347.433
##########                DOCK_Rotatable_Bonds:                   7
##########                       Formal_Charge:          -0.0200006
##########                     HBond_Acceptors:                   6
##########                        HBond_Donors:                   1
##########                         Heavy_Atoms:                  25
##########                          Grid_Score:          -27.300987
##########                     Grid_vdw_energy:          -27.362717
##########                      Grid_es_energy:            0.061730
##########           Internal_energy_repulsive:           27.687805

@<TRIPOS>MOLECULE
ZINC000986832075
 51 53 1 0 0
SMALL
USER_CHARGES


@<TRIPOS>ATOM
      1 C1         -6.9394    4.7960   53.1721 C.3     1  ZINC000986832075   -0.1700
      2 C2         -6.2713    3.4574   52.8512 C.3     1  ZINC000986832075    0.1500
      3 H3         -5.5037    3.2468   53.5958 H       1  ZINC000986832075    0.0900
      4 N4         -7.2771    2.3924   52.8720 N.am    1  ZINC000986832075   -0.7200
      5 C5         -7.5673    1.7621   54.0273 C.2     1  ZINC000986832075    0.5600
      6 O6         -6.9958    2.0781   55.0523 O.2     1  ZINC000986832075   -0.5100
      7 C7         -8.5821    0.6849   54.0479 C.ar    1  ZINC000986832075   -0.1300
      8 C8         -9.3297    0.3793   52.9061 C.ar    1  ZINC000986832075   -0.1100
      9 C9        -10.2662   -0.6335   52.9695 C.ar    1  ZINC000986832075    0.0900
     10 N10       -10.4612   -1.3086   54.0850 N.ar    1  ZINC000986832075   -0.4400
     11 C11        -9.7807   -1.0555   55.1844 C.ar    1  ZINC000986832075    0.0700
     12 C12        -8.8169   -0.0612   55.2101 C.ar    1  ZINC000986832075    0.1100
     13 F13        -8.1228    0.1928   56.3409 F       1  ZINC000986832075   -0.1000
     14 C14        -5.6305    3.5268   51.4636 C.3     1  ZINC000986832075   -0.1000
     15 C15        -4.3438    4.3521   51.5369 C.3     1  ZINC000986832075   -0.1300
     16 C16        -3.7233    4.4484   50.1396 C.3     1  ZINC000986832075    0.1100
     17 N17        -3.5400    3.0907   49.6090 N.am    1  ZINC000986832075   -0.6100
     18 C18        -2.3355    2.6858   49.1597 C.2     1  ZINC000986832075    0.5200
     19 O19        -1.3902    3.4449   49.1910 O.2     1  ZINC000986832075   -0.5300
     20 C20        -2.1635    1.2900   48.6184 C.3     1  ZINC000986832075   -0.0800
     21 H21        -3.0435    1.0146   48.0372 H       1  ZINC000986832075    0.0900
     22 C22        -1.9927    0.3097   49.7807 C.3     1  ZINC000986832075   -0.1400
     23 C23        -0.9243    1.2395   47.7224 C.3     1  ZINC000986832075   -0.1400
     24 C24        -0.8479    0.1175   46.6850 C.3     1  ZINC000986832075   -0.1800
     25 C25        -1.1129    1.5564   46.2375 C.3     1  ZINC000986832075   -0.1700
     26 C26        -4.6946    2.1825   49.5778 C.3     1  ZINC000986832075    0.1000
     27 C27        -5.3040    2.1115   50.9815 C.3     1  ZINC000986832075   -0.1300
     28 H28        -7.3958    4.7466   54.1607 H       1  ZINC000986832075    0.0600
     29 H29        -6.1910    5.5884   53.1566 H       1  ZINC000986832075    0.0700
     30 H30        -7.7070    5.0067   52.4275 H       1  ZINC000986832075    0.0600
     31 H31        -7.7341    2.1409   52.0542 H       1  ZINC000986832075    0.4000
     32 H32        -9.1769    0.9276   51.9883 H       1  ZINC000986832075    0.1500
     33 H33       -10.8477   -0.8760   52.0924 H       1  ZINC000986832075    0.1700
     34 H34        -9.9739   -1.6338   56.0759 H       1  ZINC000986832075    0.1800
     35 H35        -6.3240    3.9970   50.7664 H       1  ZINC000986832075    0.0800
     36 H36        -4.5737    5.3528   51.9027 H       1  ZINC000986832075    0.0700
     37 H37        -3.6401    3.8692   52.2149 H       1  ZINC000986832075    0.0800
     38 H38        -4.3872    5.0107   49.4830 H       1  ZINC000986832075    0.0700
     39 H39        -2.7575    4.9497   50.2024 H       1  ZINC000986832075    0.0900
     40 H40        -1.1664    0.6357   50.4124 H       1  ZINC000986832075    0.0600
     41 H41        -2.9099    0.2801   50.3689 H       1  ZINC000986832075    0.0600
     42 H42        -1.7800   -0.6850   49.3888 H       1  ZINC000986832075    0.0700
     43 H43         0.0075    1.5570   48.1905 H       1  ZINC000986832075    0.1100
     44 H44         0.1344   -0.3035   46.4705 H       1  ZINC000986832075    0.1000
     45 H45        -1.6803   -0.5848   46.6409 H       1  ZINC000986832075    0.0900
     46 H46        -2.1197    1.8008   45.8990 H       1  ZINC000986832075    0.0900
     47 H47        -0.3050    2.0820   45.7285 H       1  ZINC000986832075    0.1000
     48 H48        -5.4376    2.5601   48.8755 H       1  ZINC000986832075    0.0700
     49 H49        -4.3695    1.1886   49.2700 H       1  ZINC000986832075    0.0900
     50 H50        -4.5913    1.6498   51.6647 H       1  ZINC000986832075    0.0800
     51 H51        -6.2176    1.5176   50.9518 H       1  ZINC000986832075    0.0800
@<TRIPOS>BOND
     1     1     2    1
     2     1    28    1
     3     1    29    1
     4     1    30    1
     5     2     3    1
     6     2     4    1
     7     2    14    1
     8     4     5   am
     9     4    31    1
    10     5     6    2
    11     5     7    1
    12     7    12   ar
    13     7     8   ar
    14     8     9   ar
    15     8    32    1
    16     9    10   ar
    17     9    33    1
    18    10    11   ar
    19    11    12   ar
    20    11    34    1
    21    12    13    1
    22    14    27    1
    23    14    15    1
    24    14    35    1
    25    15    16    1
    26    15    36    1
    27    15    37    1
    28    16    17    1
    29    16    38    1
    30    16    39    1
    31    17    18   am
    32    17    26    1
    33    18    19    2
    34    18    20    1
    35    20    21    1
    36    20    22    1
    37    20    23    1
    38    22    40    1
    39    22    41    1
    40    22    42    1
    41    23    25    1
    42    23    24    1
    43    23    43    1
    44    24    25    1
    45    24    44    1
    46    24    45    1
    47    25    46    1
    48    25    47    1
    49    26    27    1
    50    26    48    1
    51    26    49    1
    52    27    50    1
    53    27    51    1
@<TRIPOS>SUBSTRUCTURE
     1 ZINC000986832075        1 TEMP              0 ****  ****    0 ROOT


##########                                Name:    ZINC001091652821
##########                DOCK_Rotatable_Bonds:                   4
##########                         Heavy_Atoms:                  24
##########                    Molecular_Weight:             345.465
##########                DOCK_Rotatable_Bonds:                   4
##########                       Formal_Charge:          -0.0199997
##########                     HBond_Acceptors:                   6
##########                        HBond_Donors:                   0
##########                         Heavy_Atoms:                  24
##########                          Grid_Score:          -27.293186
##########                     Grid_vdw_energy:          -27.470087
##########                      Grid_es_energy:            0.176900
##########           Internal_energy_repulsive:            4.027777

@<TRIPOS>MOLECULE
ZINC001091652821
 47 50 1 0 0
SMALL
USER_CHARGES


@<TRIPOS>ATOM
      1 C1         -1.5061   -1.5244   46.3051 C.3     1  ZINC001091652821   -0.1000
      2 C2         -1.6177   -0.1241   46.8505 C.2     1  ZINC001091652821   -0.1200
      3 C3         -1.6297    0.9556   46.0601 C.2     1  ZINC001091652821   -0.2400
      4 S4         -1.7659    2.3850   46.9815 S.3     1  ZINC001091652821    0.2100
      5 C5         -1.8068    1.4707   48.4828 C.2     1  ZINC001091652821   -0.2700
      6 C6         -1.9212    2.0461   49.8262 C.2     1  ZINC001091652821    0.6100
      7 O7         -1.0670    1.8151   50.6618 O.2     1  ZINC001091652821   -0.5200
      8 N8         -2.9723    2.8308   50.1358 N.am    1  ZINC001091652821   -0.6200
      9 C9         -4.0867    3.1997   49.2477 C.3     1  ZINC001091652821    0.0900
     10 C10        -5.3211    3.3712   50.1482 C.3     1  ZINC001091652821   -0.0900
     11 H11        -5.9412    4.2117   49.8364 H       1  ZINC001091652821    0.1100
     12 C12        -6.1124    2.0468   50.1770 C.3     1  ZINC001091652821    0.0400
     13 N13        -6.4736    1.8547   51.6048 N.3     1  ZINC001091652821   -0.5000
     14 C14        -6.7859    0.4468   51.8841 C.3     1  ZINC001091652821    0.1200
     15 C15        -8.2347    0.3226   52.2794 C.2     1  ZINC001091652821    0.0000
     16 C16        -8.7693   -0.6497   53.0367 C.2     1  ZINC001091652821   -0.0800
     17 O17       -10.0862   -0.3869   53.1481 O.3     1  ZINC001091652821   -0.2000
     18 C18       -10.3382    0.7356   52.4616 C.2     1  ZINC001091652821    0.1900
     19 C19       -11.6866    1.3934   52.3195 C.3     1  ZINC001091652821   -0.0600
     20 N20        -9.2247    1.1681   51.9425 N.2     1  ZINC001091652821   -0.4700
     21 C21        -5.2635    2.2891   52.3485 C.3     1  ZINC001091652821    0.0400
     22 C22        -4.7586    3.5593   51.5808 C.3     1  ZINC001091652821   -0.0700
     23 C23        -5.2214    4.8558   52.2484 C.3     1  ZINC001091652821   -0.1300
     24 C24        -3.2333    3.4813   51.4303 C.3     1  ZINC001091652821    0.1200
     25 C25        -1.7207    0.1373   48.1963 C.2     1  ZINC001091652821   -0.0500
     26 H26        -2.5031   -1.9174   46.1060 H       1  ZINC001091652821    0.0700
     27 H27        -0.9302   -1.5091   45.3797 H       1  ZINC001091652821    0.0700
     28 H28        -1.0042   -2.1597   47.0349 H       1  ZINC001091652821    0.0700
     29 H29        -1.5617    0.9261   44.9826 H       1  ZINC001091652821    0.1700
     30 H30        -3.8635    4.1362   48.7366 H       1  ZINC001091652821    0.0800
     31 H31        -4.2622    2.4081   48.5192 H       1  ZINC001091652821    0.0800
     32 H32        -7.0111    2.1278   49.5655 H       1  ZINC001091652821    0.0800
     33 H33        -5.4882    1.2237   49.8291 H       1  ZINC001091652821    0.0500
     34 H34        -6.6004   -0.1505   50.9914 H       1  ZINC001091652821    0.0500
     35 H35        -6.1552    0.0892   52.6980 H       1  ZINC001091652821    0.1000
     36 H36        -8.2425   -1.4851   53.4740 H       1  ZINC001091652821    0.2100
     37 H37       -12.4327    0.8139   52.8633 H       1  ZINC001091652821    0.0900
     38 H38       -11.6431    2.4033   52.7273 H       1  ZINC001091652821    0.1000
     39 H39       -11.9595    1.4388   51.2651 H       1  ZINC001091652821    0.1000
     40 H40        -5.5222    2.5529   53.3740 H       1  ZINC001091652821    0.0900
     41 H41        -4.5079    1.5036   52.3365 H       1  ZINC001091652821    0.0500
     42 H42        -4.8200    4.9065   53.2605 H       1  ZINC001091652821    0.0600
     43 H43        -4.8634    5.7090   51.6723 H       1  ZINC001091652821    0.0600
     44 H44        -6.3105    4.8753   52.2881 H       1  ZINC001091652821    0.0700
     45 H45        -2.8093    2.8720   52.2286 H       1  ZINC001091652821    0.0900
     46 H46        -2.8033    4.4826   51.4548 H       1  ZINC001091652821    0.0800
     47 H47        -1.7251   -0.6339   48.9523 H       1  ZINC001091652821    0.1500
@<TRIPOS>BOND
     1     1     2    1
     2     1    26    1
     3     1    27    1
     4     1    28    1
     5     2    25    1
     6     2     3    2
     7     3     4    1
     8     3    29    1
     9     4     5    1
    10     5     6    1
    11     5    25    2
    12     6     7    2
    13     6     8   am
    14     8    24    1
    15     8     9    1
    16     9    10    1
    17     9    30    1
    18     9    31    1
    19    10    11    1
    20    10    22    1
    21    10    12    1
    22    12    13    1
    23    12    32    1
    24    12    33    1
    25    13    14    1
    26    13    21    1
    27    14    15    1
    28    14    34    1
    29    14    35    1
    30    15    20    1
    31    15    16    2
    32    16    17    1
    33    16    36    1
    34    17    18    1
    35    18    19    1
    36    18    20    2
    37    19    37    1
    38    19    38    1
    39    19    39    1
    40    21    22    1
    41    21    40    1
    42    21    41    1
    43    22    23    1
    44    22    24    1
    45    23    42    1
    46    23    43    1
    47    23    44    1
    48    24    45    1
    49    24    46    1
    50    25    47    1
@<TRIPOS>SUBSTRUCTURE
     1 ZINC001091652821        1 TEMP              0 ****  ****    0 ROOT


##########                                Name:    ZINC000616491533
##########                DOCK_Rotatable_Bonds:                   4
##########                         Heavy_Atoms:                  27
##########                    Molecular_Weight:             375.418
##########                DOCK_Rotatable_Bonds:                   4
##########                       Formal_Charge:           0.0299996
##########                     HBond_Acceptors:                   7
##########                        HBond_Donors:                   0
##########                         Heavy_Atoms:                  27
##########                          Grid_Score:          -27.204189
##########                     Grid_vdw_energy:          -26.293371
##########                      Grid_es_energy:           -0.910818
##########           Internal_energy_repulsive:           12.281545

@<TRIPOS>MOLECULE
ZINC000616491533
 50 53 1 0 0
SMALL
USER_CHARGES


@<TRIPOS>ATOM
      1 C1        -13.5676   -4.8055   57.1939 C.3     1  ZINC000616491533   -0.1700
      2 C2        -13.8813   -3.3272   56.9547 C.3     1  ZINC000616491533    0.1400
      3 H3        -13.9888   -3.1394   55.8864 H       1  ZINC000616491533    0.0800
      4 C4        -15.1841   -2.9412   57.6896 C.3     1  ZINC000616491533   -0.1200
      5 C5        -14.6657   -2.2960   58.9918 C.3     1  ZINC000616491533   -0.0700
      6 C6        -13.3763   -1.5924   58.5271 C.3     1  ZINC000616491533    0.0900
      7 N7        -12.8021   -2.4919   57.5032 N.am    1  ZINC000616491533   -0.6100
      8 C8        -11.5057   -2.5389   57.1377 C.2     1  ZINC000616491533    0.6100
      9 O9        -11.1432   -3.3239   56.2826 O.2     1  ZINC000616491533   -0.5200
     10 C10       -10.5272   -1.6387   57.7742 C.2     1  ZINC000616491533   -0.2400
     11 C11       -10.0456   -0.4534   57.2554 C.2     1  ZINC000616491533    0.0700
     12 C12       -10.4231    0.1601   55.9318 C.3     1  ZINC000616491533    0.3400
     13 F13       -11.7512   -0.1607   55.6309 F       1  ZINC000616491533   -0.1900
     14 F14       -10.2846    1.5503   56.0058 F       1  ZINC000616491533   -0.1600
     15 N15        -9.1772    0.0532   58.1496 N.pl3   1  ZINC000616491533   -0.2900
     16 C16        -8.4625    1.2507   58.0098 C.ar    1  ZINC000616491533    0.1300
     17 C17        -8.7726    2.3433   58.8085 C.ar    1  ZINC000616491533   -0.1000
     18 C18        -8.0665    3.5219   58.6684 C.ar    1  ZINC000616491533   -0.1000
     19 C19        -7.0518    3.6147   57.7335 C.ar    1  ZINC000616491533   -0.1000
     20 C20        -6.7407    2.5285   56.9365 C.ar    1  ZINC000616491533   -0.1000
     21 C21        -7.4390    1.3451   57.0762 C.ar    1  ZINC000616491533   -0.0900
     22 N22        -9.1084   -0.8176   59.2428 N.2     1  ZINC000616491533   -0.2600
     23 C23        -9.9112   -1.8245   59.0325 C.2     1  ZINC000616491533    0.0700
     24 C24       -15.6691   -1.2843   59.5262 C.3     1  ZINC000616491533   -0.1400
     25 C25       -15.1438   -0.6980   60.8413 C.3     1  ZINC000616491533    0.0600
     26 O26       -14.8846   -1.7604   61.7615 O.3     1  ZINC000616491533   -0.3800
     27 C27       -13.8861   -2.6851   61.3251 C.3     1  ZINC000616491533    0.0600
     28 C28       -14.3535   -3.3622   60.0318 C.3     1  ZINC000616491533   -0.1500
     29 H29       -13.4491   -4.9835   58.2627 H       1  ZINC000616491533    0.0600
     30 H30       -14.3853   -5.4168   56.8122 H       1  ZINC000616491533    0.0600
     31 H31       -12.6448   -5.0692   56.6771 H       1  ZINC000616491533    0.0800
     32 H32       -15.7585   -2.2226   57.1050 H       1  ZINC000616491533    0.0800
     33 H33       -15.7806   -3.8268   57.9087 H       1  ZINC000616491533    0.0900
     34 H34       -13.6100   -0.6218   58.0897 H       1  ZINC000616491533    0.0800
     35 H35       -12.6849   -1.4770   59.3620 H       1  ZINC000616491533    0.0800
     36 H36        -9.7695   -0.2291   55.1512 H       1  ZINC000616491533    0.1400
     37 H37        -9.5654    2.2716   59.5384 H       1  ZINC000616491533    0.1300
     38 H38        -8.3072    4.3721   59.2894 H       1  ZINC000616491533    0.1400
     39 H39        -6.5016    4.5378   57.6252 H       1  ZINC000616491533    0.1300
     40 H40        -5.9477    2.6039   56.2072 H       1  ZINC000616491533    0.1400
     41 H41        -7.1956    0.4969   56.4534 H       1  ZINC000616491533    0.1300
     42 H42       -10.0721   -2.6576   59.7007 H       1  ZINC000616491533    0.2100
     43 H43       -15.8019   -0.4839   58.7983 H       1  ZINC000616491533    0.0800
     44 H44       -16.6246   -1.7781   59.7037 H       1  ZINC000616491533    0.0800
     45 H45       -14.2223   -0.1475   60.6520 H       1  ZINC000616491533    0.0500
     46 H46       -15.8902   -0.0250   61.2635 H       1  ZINC000616491533    0.1000
     47 H47       -12.9531   -2.1528   61.1403 H       1  ZINC000616491533    0.0500
     48 H48       -13.7284   -3.4405   62.0948 H       1  ZINC000616491533    0.1000
     49 H49       -15.2500   -3.9492   60.2318 H       1  ZINC000616491533    0.0800
     50 H50       -13.5656   -4.0158   59.6578 H       1  ZINC000616491533    0.0800
@<TRIPOS>BOND
     1     1     2    1
     2     1    29    1
     3     1    30    1
     4     1    31    1
     5     2     3    1
     6     2     7    1
     7     2     4    1
     8     4     5    1
     9     4    32    1
    10     4    33    1
    11     5    28    1
    12     5     6    1
    13     5    24    1
    14     6     7    1
    15     6    34    1
    16     6    35    1
    17     7     8   am
    18     8     9    2
    19     8    10    1
    20    10    23    1
    21    10    11    2
    22    11    12    1
    23    11    15    1
    24    12    13    1
    25    12    14    1
    26    12    36    1
    27    15    16    1
    28    15    22    1
    29    16    21   ar
    30    16    17   ar
    31    17    18   ar
    32    17    37    1
    33    18    19   ar
    34    18    38    1
    35    19    20   ar
    36    19    39    1
    37    20    21   ar
    38    20    40    1
    39    21    41    1
    40    22    23    2
    41    23    42    1
    42    24    25    1
    43    24    43    1
    44    24    44    1
    45    25    26    1
    46    25    45    1
    47    25    46    1
    48    26    27    1
    49    27    28    1
    50    27    47    1
    51    27    48    1
    52    28    49    1
    53    28    50    1
@<TRIPOS>SUBSTRUCTURE
     1 ZINC000616491533        1 TEMP              0 ****  ****    0 ROOT


##########                                Name:    ZINC001067316277
##########                DOCK_Rotatable_Bonds:                   5
##########                         Heavy_Atoms:                  24
##########                    Molecular_Weight:             345.469
##########                DOCK_Rotatable_Bonds:                   5
##########                       Formal_Charge:          -0.0200007
##########                     HBond_Acceptors:                   7
##########                        HBond_Donors:                   2
##########                         Heavy_Atoms:                  24
##########                          Grid_Score:          -27.202797
##########                     Grid_vdw_energy:          -26.646517
##########                      Grid_es_energy:           -0.556279
##########           Internal_energy_repulsive:            8.730961

@<TRIPOS>MOLECULE
ZINC001067316277
 47 49 1 0 0
SMALL
USER_CHARGES


@<TRIPOS>ATOM
      1 C1          2.8692    3.0815   44.8655 C.3     1  ZINC001067316277   -0.1400
      2 S2          2.4007    1.9090   43.5687 S.3     1  ZINC001067316277   -0.0400
      3 C3          0.8237    1.4023   44.1695 C.ar    1  ZINC001067316277    0.1800
      4 C4          0.0453    0.4982   43.4425 C.ar    1  ZINC001067316277   -0.2400
      5 C5         -1.1841    0.1294   43.9519 C.ar    1  ZINC001067316277    0.1900
      6 N6         -1.5872    0.6396   45.1065 N.ar    1  ZINC001067316277   -0.5600
      7 C7         -0.8282    1.4955   45.7754 C.ar    1  ZINC001067316277    0.5100
      8 N8         -1.2852    2.0057   46.9779 N.3     1  ZINC001067316277   -0.4600
      9 C9         -2.7347    1.8142   47.1139 C.3     1  ZINC001067316277    0.0700
     10 C10        -3.2266    2.5159   48.3819 C.3     1  ZINC001067316277   -0.1300
     11 C11        -2.4996    1.9328   49.5968 C.3     1  ZINC001067316277    0.1600
     12 H12        -2.7387    0.8735   49.6904 H       1  ZINC001067316277    0.0900
     13 N13        -2.9248    2.6396   50.8076 N.am    1  ZINC001067316277   -0.7200
     14 C14        -4.0815    2.3043   51.4125 C.2     1  ZINC001067316277    0.5900
     15 O15        -4.7734    1.4152   50.9523 O.2     1  ZINC001067316277   -0.5300
     16 C16        -4.5063    3.0107   52.6257 C.2     1  ZINC001067316277   -0.0600
     17 C17        -3.8286    4.0354   53.2516 C.2     1  ZINC001067316277   -0.1000
     18 C18        -4.5883    4.4113   54.3637 C.2     1  ZINC001067316277   -0.2100
     19 C19        -5.6923    3.6271   54.3971 C.2     1  ZINC001067316277    0.0300
     20 N20        -5.6571    2.7755   53.3433 N.pl3   1  ZINC001067316277   -0.5400
     21 C21        -0.9895    2.1017   49.4077 C.3     1  ZINC001067316277   -0.0700
     22 C22        -0.6478    3.5911   49.3309 C.3     1  ZINC001067316277   -0.1400
     23 C23        -0.2528    1.4688   50.5899 C.3     1  ZINC001067316277   -0.1400
     24 C24        -0.5626    1.4119   48.1100 C.3     1  ZINC001067316277    0.0800
     25 N25         0.3592    1.8706   45.3245 N.ar    1  ZINC001067316277   -0.5400
     26 H26         2.1339    3.8847   44.9121 H       1  ZINC001067316277    0.0900
     27 H27         2.9055    2.5662   45.8254 H       1  ZINC001067316277    0.0900
     28 H28         3.8503    3.4996   44.6403 H       1  ZINC001067316277    0.1000
     29 H29         0.3968    0.0971   42.5033 H       1  ZINC001067316277    0.1500
     30 H30        -1.8108   -0.5671   43.4147 H       1  ZINC001067316277    0.1700
     31 H31        -3.2400    2.2370   46.2456 H       1  ZINC001067316277    0.1000
     32 H32        -2.9557    0.7488   47.1795 H       1  ZINC001067316277    0.0500
     33 H33        -3.0183    3.5835   48.3110 H       1  ZINC001067316277    0.0800
     34 H34        -4.2999    2.3604   48.4908 H       1  ZINC001067316277    0.0800
     35 H35        -2.3738    3.3491   51.1737 H       1  ZINC001067316277    0.3900
     36 H36        -2.8882    4.4664   52.9415 H       1  ZINC001067316277    0.1500
     37 H37        -4.3391    5.1887   55.0708 H       1  ZINC001067316277    0.1500
     38 H38        -6.4747    3.6751   55.1402 H       1  ZINC001067316277    0.1700
     39 H39        -6.3283    2.1075   53.1332 H       1  ZINC001067316277    0.4100
     40 H40        -0.9553    4.0825   50.2540 H       1  ZINC001067316277    0.0500
     41 H41         0.4272    3.7107   49.1963 H       1  ZINC001067316277    0.0600
     42 H42        -1.1719    4.0411   48.4877 H       1  ZINC001067316277    0.0700
     43 H43        -0.4955    0.4076   50.6432 H       1  ZINC001067316277    0.0600
     44 H44         0.8221    1.5895   50.4547 H       1  ZINC001067316277    0.0600
     45 H45        -0.5600    1.9588   51.5139 H       1  ZINC001067316277    0.0600
     46 H46        -0.7937    0.3485   48.1709 H       1  ZINC001067316277    0.0600
     47 H47         0.5099    1.5426   47.9652 H       1  ZINC001067316277    0.1000
@<TRIPOS>BOND
     1     1     2    1
     2     1    26    1
     3     1    27    1
     4     1    28    1
     5     2     3    1
     6     3    25   ar
     7     3     4   ar
     8     4     5   ar
     9     4    29    1
    10     5     6   ar
    11     5    30    1
    12     6     7   ar
    13     7     8    1
    14     7    25   ar
    15     8    24    1
    16     8     9    1
    17     9    10    1
    18     9    31    1
    19     9    32    1
    20    10    11    1
    21    10    33    1
    22    10    34    1
    23    11    12    1
    24    11    13    1
    25    11    21    1
    26    13    14   am
    27    13    35    1
    28    14    15    2
    29    14    16    1
    30    16    20    1
    31    16    17    2
    32    17    18    1
    33    17    36    1
    34    18    19    2
    35    18    37    1
    36    19    20    1
    37    19    38    1
    38    20    39    1
    39    21    22    1
    40    21    23    1
    41    21    24    1
    42    22    40    1
    43    22    41    1
    44    22    42    1
    45    23    43    1
    46    23    44    1
    47    23    45    1
    48    24    46    1
    49    24    47    1
@<TRIPOS>SUBSTRUCTURE
     1 ZINC001067316277        1 TEMP              0 ****  ****    0 ROOT


##########                                Name:    ZINC001401207732
##########                DOCK_Rotatable_Bonds:                   8
##########                         Heavy_Atoms:                  23
##########                    Molecular_Weight:             337.446
##########                DOCK_Rotatable_Bonds:                   8
##########                       Formal_Charge:          -0.0199995
##########                     HBond_Acceptors:                   8
##########                        HBond_Donors:                   1
##########                         Heavy_Atoms:                  23
##########                          Grid_Score:          -27.165403
##########                     Grid_vdw_energy:          -27.162231
##########                      Grid_es_energy:           -0.003172
##########           Internal_energy_repulsive:           29.285419

@<TRIPOS>MOLECULE
ZINC001401207732
 46 47 1 0 0
SMALL
USER_CHARGES


@<TRIPOS>ATOM
      1 C1         -7.4072    1.8187   54.2290 C.3     1  ZINC001401207732   -0.0900
      2 C2         -7.1460    0.9186   53.0488 C.2     1  ZINC001401207732    0.1500
      3 C3         -6.2008    1.1861   52.1131 C.2     1  ZINC001401207732   -0.3000
      4 C4         -5.3094    2.3508   52.0924 C.2     1  ZINC001401207732    0.6100
      5 O5         -4.6214    2.6076   53.0628 O.2     1  ZINC001401207732   -0.5200
      6 N6         -5.2522    3.1364   50.9988 N.am    1  ZINC001401207732   -0.5900
      7 C7         -6.0804    2.8270   49.8307 C.3     1  ZINC001401207732    0.0700
      8 C8         -4.3619    4.2996   50.9782 C.3     1  ZINC001401207732    0.1400
      9 H9         -4.4138    4.7796   50.0010 H       1  ZINC001401207732    0.1100
     10 C10        -4.7956    5.2930   52.0581 C.3     1  ZINC001401207732   -0.1600
     11 C11        -2.9254    3.8473   51.2486 C.3     1  ZINC001401207732    0.0500
     12 N12        -2.4818    2.9550   50.1694 N.3     1  ZINC001401207732   -0.6800
     13 C13        -2.4855    3.6513   48.8757 C.3     1  ZINC001401207732    0.1500
     14 C14        -1.4584    3.0272   47.9665 C.2     1  ZINC001401207732    0.1800
     15 N15        -1.4734    1.8036   47.4952 N.2     1  ZINC001401207732   -0.4800
     16 C16        -0.3676    1.6941   46.7374 C.2     1  ZINC001401207732    0.1800
     17 C17         0.0724    0.4721   45.9730 C.3     1  ZINC001401207732   -0.0100
     18 C18        -1.1564   -0.2578   45.4270 C.3     1  ZINC001401207732   -0.1500
     19 C19         0.9730    0.8946   44.8106 C.3     1  ZINC001401207732   -0.1500
     20 N20         0.2519    2.8355   46.7856 N.2     1  ZINC001401207732   -0.3800
     21 O21        -0.3613    3.6168   47.4819 O.3     1  ZINC001401207732    0.0900
     22 S22        -6.2412   -0.1126   50.9227 S.3     1  ZINC001401207732    0.1800
     23 C23        -7.4976   -0.8815   51.7904 C.2     1  ZINC001401207732    0.0100
     24 N24        -7.8111   -0.1894   52.8383 N.2     1  ZINC001401207732   -0.4800
     25 H25        -8.1634    2.5571   53.9624 H       1  ZINC001401207732    0.0800
     26 H26        -7.7623    1.2220   55.0693 H       1  ZINC001401207732    0.0800
     27 H27        -6.4850    2.3277   54.5089 H       1  ZINC001401207732    0.1000
     28 H28        -5.5749    2.0845   49.2132 H       1  ZINC001401207732    0.0600
     29 H29        -7.0412    2.4319   50.1607 H       1  ZINC001401207732    0.0800
     30 H30        -6.2413    3.7345   49.2488 H       1  ZINC001401207732    0.0900
     31 H31        -4.1331    6.1584   52.0427 H       1  ZINC001401207732    0.0700
     32 H32        -5.8189    5.6152   51.8654 H       1  ZINC001401207732    0.0700
     33 H33        -4.7437    4.8130   53.0353 H       1  ZINC001401207732    0.0600
     34 H34        -2.8849    3.3157   52.1994 H       1  ZINC001401207732    0.0800
     35 H35        -2.2721    4.7187   51.2914 H       1  ZINC001401207732    0.0500
     36 H36        -3.0494    2.1216   50.1330 H       1  ZINC001401207732    0.3600
     37 H37        -2.2441    4.7031   49.0287 H       1  ZINC001401207732    0.1100
     38 H38        -3.4724    3.5673   48.4208 H       1  ZINC001401207732    0.0800
     39 H39         0.6245   -0.1927   46.6374 H       1  ZINC001401207732    0.1000
     40 H40        -0.8381   -1.1416   44.8742 H       1  ZINC001401207732    0.0700
     41 H41        -1.7980   -0.5587   46.2551 H       1  ZINC001401207732    0.0600
     42 H42        -1.7085    0.4070   44.7626 H       1  ZINC001401207732    0.0600
     43 H43         1.8484    1.4146   45.1995 H       1  ZINC001401207732    0.0600
     44 H44         1.2913    0.0108   44.2577 H       1  ZINC001401207732    0.0700
     45 H45         0.4209    1.5594   44.1462 H       1  ZINC001401207732    0.0600
     46 H46        -7.9667   -1.8106   51.5024 H       1  ZINC001401207732    0.2000
@<TRIPOS>BOND
     1     1     2    1
     2     1    25    1
     3     1    26    1
     4     1    27    1
     5     2    24    1
     6     2     3    2
     7     3     4    1
     8     3    22    1
     9     4     5    2
    10     4     6   am
    11     6     7    1
    12     6     8    1
    13     7    28    1
    14     7    29    1
    15     7    30    1
    16     8     9    1
    17     8    10    1
    18     8    11    1
    19    10    31    1
    20    10    32    1
    21    10    33    1
    22    11    12    1
    23    11    34    1
    24    11    35    1
    25    12    13    1
    26    12    36    1
    27    13    14    1
    28    13    37    1
    29    13    38    1
    30    14    21    1
    31    14    15    2
    32    15    16    1
    33    16    17    1
    34    16    20    2
    35    17    18    1
    36    17    19    1
    37    17    39    1
    38    18    40    1
    39    18    41    1
    40    18    42    1
    41    19    43    1
    42    19    44    1
    43    19    45    1
    44    20    21    1
    45    22    23    1
    46    23    24    2
    47    23    46    1
@<TRIPOS>SUBSTRUCTURE
     1 ZINC001401207732        1 TEMP              0 ****  ****    0 ROOT


##########                                Name:    ZINC000540473851
##########                DOCK_Rotatable_Bonds:                   5
##########                         Heavy_Atoms:                  29
##########                    Molecular_Weight:             411.503
##########                DOCK_Rotatable_Bonds:                   5
##########                       Formal_Charge:           0.0200001
##########                     HBond_Acceptors:                   8
##########                        HBond_Donors:                   0
##########                         Heavy_Atoms:                  29
##########                          Grid_Score:          -27.158787
##########                     Grid_vdw_energy:          -26.402533
##########                      Grid_es_energy:           -0.756255
##########           Internal_energy_repulsive:           30.970203

@<TRIPOS>MOLECULE
ZINC000540473851
 51 54 1 0 0
SMALL
USER_CHARGES


@<TRIPOS>ATOM
      1 C1         -8.4598    4.1013   56.0491 C.3     1  ZINC000540473851   -0.0800
      2 C2         -7.7112    3.0632   55.2535 C.2     1  ZINC000540473851    0.1500
      3 C3         -7.3988    1.8256   55.7499 C.2     1  ZINC000540473851   -0.3100
      4 C4         -7.7283    1.3214   57.0887 C.2     1  ZINC000540473851    0.6000
      5 O5         -6.9252    1.4339   57.9957 O.2     1  ZINC000540473851   -0.5100
      6 N6         -8.9204    0.7340   57.3129 N.am    1  ZINC000540473851   -0.6100
      7 C7         -9.9031    0.5825   56.2293 C.3     1  ZINC000540473851    0.1000
      8 C8        -10.3568   -0.8805   56.1846 C.3     1  ZINC000540473851    0.0400
      9 N9        -10.8322   -1.2832   57.5149 N.3     1  ZINC000540473851   -0.5300
     10 C10       -11.4351   -2.6222   57.4755 C.3     1  ZINC000540473851    0.1200
     11 H11       -10.7754   -3.3326   57.9739 H       1  ZINC000540473851    0.0500
     12 C12       -11.6365   -3.0482   56.0198 C.3     1  ZINC000540473851   -0.1400
     13 C13       -12.7672   -2.5944   58.1796 C.ar    1  ZINC000540473851   -0.0500
     14 C14       -13.4831   -3.7644   58.3500 C.ar    1  ZINC000540473851   -0.1000
     15 C15       -14.7054   -3.7404   58.9958 C.ar    1  ZINC000540473851   -0.0900
     16 C16       -15.2127   -2.5464   59.4717 C.ar    1  ZINC000540473851   -0.1500
     17 C17       -14.4961   -1.3736   59.3019 C.ar    1  ZINC000540473851    0.1000
     18 F18       -14.9911   -0.2058   59.7668 F       1  ZINC000540473851   -0.1400
     19 C19       -13.2699   -1.3997   58.6598 C.ar    1  ZINC000540473851   -0.1500
     20 C20        -9.7516   -1.2216   58.5082 C.3     1  ZINC000540473851    0.0400
     21 C21        -9.2706    0.2220   58.6466 C.3     1  ZINC000540473851    0.1200
     22 S22        -6.5309    0.9469   54.4932 S.3     1  ZINC000540473851    0.2800
     23 C23        -6.6653    2.2902   53.4447 C.2     1  ZINC000540473851    0.0800
     24 C24        -6.1326    2.3398   52.0653 C.ar    1  ZINC000540473851    0.3800
     25 N25        -5.3766    1.3415   51.6265 N.ar    1  ZINC000540473851   -0.5100
     26 C26        -4.8853    1.3551   50.4001 C.ar    1  ZINC000540473851    0.1600
     27 C27        -5.1686    2.4296   49.5691 C.ar    1  ZINC000540473851   -0.2100
     28 C28        -5.9623    3.4566   50.0597 C.ar    1  ZINC000540473851    0.1500
     29 N29        -6.4266    3.3789   51.2943 N.ar    1  ZINC000540473851   -0.4700
     30 N30        -7.3077    3.2617   54.0279 N.2     1  ZINC000540473851   -0.4300
     31 H31        -9.5310    3.9805   55.8872 H       1  ZINC000540473851    0.0900
     32 H32        -8.2364    3.9779   57.1088 H       1  ZINC000540473851    0.0800
     33 H33        -8.1536    5.0966   55.7268 H       1  ZINC000540473851    0.0800
     34 H34       -10.7616    1.2264   56.4208 H       1  ZINC000540473851    0.0900
     35 H35        -9.4441    0.8526   55.2783 H       1  ZINC000540473851    0.0900
     36 H36       -11.1653   -0.9887   55.4614 H       1  ZINC000540473851    0.1000
     37 H37        -9.5187   -1.5125   55.8911 H       1  ZINC000540473851    0.0400
     38 H38       -12.2961   -2.3379   55.5214 H       1  ZINC000540473851    0.0700
     39 H39       -10.6729   -3.0683   55.5105 H       1  ZINC000540473851    0.0600
     40 H40       -12.0838   -4.0418   55.9905 H       1  ZINC000540473851    0.0600
     41 H41       -13.0875   -4.6981   57.9781 H       1  ZINC000540473851    0.1400
     42 H42       -15.2641   -4.6552   59.1281 H       1  ZINC000540473851    0.1300
     43 H43       -16.1678   -2.5279   59.9755 H       1  ZINC000540473851    0.1300
     44 H44       -12.7100   -0.4858   58.5272 H       1  ZINC000540473851    0.1300
     45 H45       -10.1209   -1.5770   59.4701 H       1  ZINC000540473851    0.1000
     46 H46        -8.9218   -1.8488   58.1823 H       1  ZINC000540473851    0.0400
     47 H47        -8.3951    0.2557   59.2950 H       1  ZINC000540473851    0.1000
     48 H48       -10.0669    0.8342   59.0697 H       1  ZINC000540473851    0.0800
     49 H49        -4.2702    0.5398   50.0486 H       1  ZINC000540473851    0.1800
     50 H50        -4.7794    2.4660   48.5624 H       1  ZINC000540473851    0.1600
     51 H51        -6.2013    4.3069   49.4384 H       1  ZINC000540473851    0.1800
@<TRIPOS>BOND
     1     1     2    1
     2     1    31    1
     3     1    32    1
     4     1    33    1
     5     2    30    1
     6     2     3    2
     7     3     4    1
     8     3    22    1
     9     4     5    2
    10     4     6   am
    11     6    21    1
    12     6     7    1
    13     7     8    1
    14     7    34    1
    15     7    35    1
    16     8     9    1
    17     8    36    1
    18     8    37    1
    19     9    10    1
    20     9    20    1
    21    10    11    1
    22    10    12    1
    23    10    13    1
    24    12    38    1
    25    12    39    1
    26    12    40    1
    27    13    19   ar
    28    13    14   ar
    29    14    15   ar
    30    14    41    1
    31    15    16   ar
    32    15    42    1
    33    16    17   ar
    34    16    43    1
    35    17    18    1
    36    17    19   ar
    37    19    44    1
    38    20    21    1
    39    20    45    1
    40    20    46    1
    41    21    47    1
    42    21    48    1
    43    22    23    1
    44    23    24    1
    45    23    30    2
    46    24    29   ar
    47    24    25   ar
    48    25    26   ar
    49    26    27   ar
    50    26    49    1
    51    27    28   ar
    52    27    50    1
    53    28    29   ar
    54    28    51    1
@<TRIPOS>SUBSTRUCTURE
     1 ZINC000540473851        1 TEMP              0 ****  ****    0 ROOT


##########                                Name:    ZINC000794876634
##########                DOCK_Rotatable_Bonds:                   4
##########                         Heavy_Atoms:                  24
##########                    Molecular_Weight:             389.249
##########                DOCK_Rotatable_Bonds:                   4
##########                       Formal_Charge:        -4.47035e-08
##########                     HBond_Acceptors:                   5
##########                        HBond_Donors:                   0
##########                         Heavy_Atoms:                  24
##########                          Grid_Score:          -27.123161
##########                     Grid_vdw_energy:          -26.044014
##########                      Grid_es_energy:           -1.079147
##########           Internal_energy_repulsive:           52.927155

@<TRIPOS>MOLECULE
ZINC000794876634
 41 43 1 0 0
SMALL
USER_CHARGES


@<TRIPOS>ATOM
      1 C1        -10.6951   -1.5417   55.6296 C.3     1  ZINC000794876634    0.0200
      2 O2        -11.2412   -2.1878   56.7813 O.3     1  ZINC000794876634   -0.3000
      3 C3        -10.7083   -1.8556   57.9853 C.ar    1  ZINC000794876634    0.1300
      4 C4         -9.7143   -0.8885   58.0590 C.ar    1  ZINC000794876634   -0.1800
      5 C5         -9.1692   -0.5471   59.2768 C.ar    1  ZINC000794876634   -0.0400
      6 C6         -8.0908    0.5029   59.3523 C.3     1  ZINC000794876634   -0.1200
      7 C7         -9.6181   -1.1763   60.4455 C.ar    1  ZINC000794876634   -0.1000
      8 C8         -9.0405   -0.8152   61.7433 C.2     1  ZINC000794876634    0.0600
      9 C9         -9.7920   -0.1389   62.6603 C.2     1  ZINC000794876634   -0.1700
     10 C10       -11.1889    0.3078   62.5225 C.2     1  ZINC000794876634    0.5700
     11 O11       -11.9021    0.1386   61.5505 O.2     1  ZINC000794876634   -0.4900
     12 N12       -11.5373    0.9342   63.6589 N.am    1  ZINC000794876634   -0.5300
     13 C13       -12.8570    1.5208   63.9048 C.3     1  ZINC000794876634    0.0800
     14 C14       -10.4927    0.9558   64.5700 C.ar    1  ZINC000794876634    0.3700
     15 N15       -10.4045    1.4622   65.7937 N.ar    1  ZINC000794876634   -0.4900
     16 C16        -9.2994    1.3742   66.5059 C.ar    1  ZINC000794876634    0.1800
     17 C17        -8.1690    0.7469   66.0131 C.ar    1  ZINC000794876634   -0.1800
     18 Br18       -6.5995    0.6378   67.0622 Br      1  ZINC000794876634   -0.0200
     19 C19        -8.2025    0.1985   64.7391 C.ar    1  ZINC000794876634    0.0000
     20 C20        -9.3843    0.3006   64.0128 C.ar    1  ZINC000794876634   -0.1400
     21 C21       -10.6219   -2.1521   60.3693 C.ar    1  ZINC000794876634   -0.1400
     22 C22       -11.1651   -2.4831   59.1449 C.ar    1  ZINC000794876634    0.0900
     23 O23       -12.1393   -3.4289   59.0670 O.3     1  ZINC000794876634   -0.3000
     24 C24       -12.4650   -3.9193   57.7649 C.3     1  ZINC000794876634    0.0200
     25 H25       -11.2090   -1.8962   54.7362 H       1  ZINC000794876634    0.1000
     26 H26       -10.8272   -0.4636   55.7211 H       1  ZINC000794876634    0.0600
     27 H27        -9.6325   -1.7724   55.5533 H       1  ZINC000794876634    0.0600
     28 H28        -9.3677   -0.4029   57.1587 H       1  ZINC000794876634    0.1400
     29 H29        -8.5473    1.4834   59.4874 H       1  ZINC000794876634    0.0800
     30 H30        -7.4337    0.2888   60.1951 H       1  ZINC000794876634    0.0700
     31 H31        -7.5115    0.4959   58.4290 H       1  ZINC000794876634    0.0700
     32 H32        -8.0203   -1.0841   61.9739 H       1  ZINC000794876634    0.1500
     33 H33       -13.4914    1.3670   63.0319 H       1  ZINC000794876634    0.0900
     34 H34       -13.3111    1.0427   64.7728 H       1  ZINC000794876634    0.0800
     35 H35       -12.7504    2.5892   64.0928 H       1  ZINC000794876634    0.0800
     36 H36        -9.2753    1.8021   67.4973 H       1  ZINC000794876634    0.1800
     37 H37        -7.3371   -0.2975   64.3250 H       1  ZINC000794876634    0.1600
     38 H38       -10.9717   -2.6404   61.2668 H       1  ZINC000794876634    0.1400
     39 H39       -12.8862   -3.1110   57.1672 H       1  ZINC000794876634    0.0500
     40 H40       -11.5631   -4.2960   57.2825 H       1  ZINC000794876634    0.0600
     41 H41       -13.1940   -4.7249   57.8519 H       1  ZINC000794876634    0.1100
@<TRIPOS>BOND
     1     1     2    1
     2     1    25    1
     3     1    26    1
     4     1    27    1
     5     2     3    1
     6     3    22   ar
     7     3     4   ar
     8     4     5   ar
     9     4    28    1
    10     5     6    1
    11     5     7   ar
    12     6    29    1
    13     6    30    1
    14     6    31    1
    15     7     8    1
    16     7    21   ar
    17     8     9    2
    18     8    32    1
    19     9    20    1
    20     9    10    1
    21    10    11    2
    22    10    12   am
    23    12    13    1
    24    12    14    1
    25    13    33    1
    26    13    34    1
    27    13    35    1
    28    14    20   ar
    29    14    15   ar
    30    15    16   ar
    31    16    17   ar
    32    16    36    1
    33    17    18    1
    34    17    19   ar
    35    19    20   ar
    36    19    37    1
    37    21    22   ar
    38    21    38    1
    39    22    23    1
    40    23    24    1
    41    24    39    1
    42    24    40    1
    43    24    41    1
@<TRIPOS>SUBSTRUCTURE
     1 ZINC000794876634        1 TEMP              0 ****  ****    0 ROOT


##########                                Name:    ZINC001023148918
##########                DOCK_Rotatable_Bonds:                   6
##########                         Heavy_Atoms:                  25
##########                    Molecular_Weight:             348.402
##########                DOCK_Rotatable_Bonds:                   6
##########                       Formal_Charge:           0.0199999
##########                     HBond_Acceptors:                   8
##########                        HBond_Donors:                   2
##########                         Heavy_Atoms:                  25
##########                          Grid_Score:          -27.122852
##########                     Grid_vdw_energy:          -27.036436
##########                      Grid_es_energy:           -0.086416
##########           Internal_energy_repulsive:           12.668119

@<TRIPOS>MOLECULE
ZINC001023148918
 49 52 1 0 0
SMALL
USER_CHARGES


@<TRIPOS>ATOM
      1 C1         -8.9529   -0.0691   63.0961 C.3     1  ZINC001023148918   -0.0700
      2 C2         -9.2181   -0.5383   61.6887 C.2     1  ZINC001023148918    0.0200
      3 N3         -9.7179   -1.6976   61.3445 N.2     1  ZINC001023148918   -0.2700
      4 N4         -9.8206   -1.7920   60.0676 N.pl3   1  ZINC001023148918   -0.2500
      5 C5        -10.3411   -2.9560   59.3463 C.3     1  ZINC001023148918    0.0800
      6 C6         -9.3707   -0.6413   59.4850 C.2     1  ZINC001023148918   -0.0400
      7 C7         -9.3185   -0.3423   58.0451 C.2     1  ZINC001023148918    0.6000
      8 O8         -9.6746   -1.1787   57.2369 O.2     1  ZINC001023148918   -0.5300
      9 N9         -8.8764    0.8585   57.6217 N.am    1  ZINC001023148918   -0.7000
     10 C10        -8.8245    1.1561   56.1882 C.3     1  ZINC001023148918    0.1500
     11 H11        -9.6105    0.6244   55.6522 H       1  ZINC001023148918    0.1200
     12 C12        -7.4297    0.8232   55.6021 C.3     1  ZINC001023148918    0.1000
     13 N13        -7.3030    1.6881   54.4149 N.am    1  ZINC001023148918   -0.6200
     14 C14        -6.5107    1.4503   53.3508 C.2     1  ZINC001023148918    0.5400
     15 O15        -5.8214    0.4529   53.3188 O.2     1  ZINC001023148918   -0.5200
     16 C16        -6.4814    2.4238   52.2009 C.3     1  ZINC001023148918   -0.1400
     17 H17        -6.8733    3.3936   52.5076 H       1  ZINC001023148918    0.1100
     18 C18        -7.2752    1.8685   50.9909 C.3     1  ZINC001023148918   -0.1400
     19 C19        -6.1846    1.7601   49.8833 C.3     1  ZINC001023148918    0.0600
     20 H20        -6.4071    1.0635   49.0749 H       1  ZINC001023148918    0.1300
     21 C21        -5.8987    3.2268   49.4417 C.3     1  ZINC001023148918   -0.1500
     22 C22        -5.1088    3.7999   50.6460 C.3     1  ZINC001023148918   -0.1500
     23 C23        -5.0365    2.5663   51.6350 C.3     1  ZINC001023148918    0.0900
     24 H24        -4.2324    2.6031   52.3699 H       1  ZINC001023148918    0.1400
     25 O25        -4.9964    1.4475   50.6819 O.3     1  ZINC001023148918   -0.3600
     26 C26        -8.1847    2.8524   54.5836 C.3     1  ZINC001023148918    0.0700
     27 C27        -8.9135    2.6841   55.9339 C.3     1  ZINC001023148918    0.0900
     28 H28        -8.3997    3.2360   56.7210 H       1  ZINC001023148918    0.0800
     29 O29       -10.2749    3.1057   55.8296 O.3     1  ZINC001023148918   -0.5500
     30 C30        -8.9799    0.1895   60.5206 C.2     1  ZINC001023148918   -0.1800
     31 H31        -9.8385    0.4337   63.4845 H       1  ZINC001023148918    0.0800
     32 H32        -8.7160   -0.9263   63.7263 H       1  ZINC001023148918    0.0700
     33 H33        -8.1122    0.6247   63.0954 H       1  ZINC001023148918    0.0800
     34 H34       -11.4264   -2.8842   59.2754 H       1  ZINC001023148918    0.0900
     35 H35        -9.9127   -2.9839   58.3443 H       1  ZINC001023148918    0.1100
     36 H36       -10.0714   -3.8660   59.8821 H       1  ZINC001023148918    0.0900
     37 H37        -8.5925    1.5254   58.2662 H       1  ZINC001023148918    0.4100
     38 H38        -6.6486    1.0558   56.3259 H       1  ZINC001023148918    0.0800
     39 H39        -7.3802   -0.2268   55.3136 H       1  ZINC001023148918    0.0900
     40 H40        -7.6919    0.8877   51.2197 H       1  ZINC001023148918    0.0800
     41 H41        -8.0606    2.5630   50.6928 H       1  ZINC001023148918    0.0900
     42 H42        -5.2911    3.2462   48.5370 H       1  ZINC001023148918    0.0800
     43 H43        -6.8297    3.7743   49.2948 H       1  ZINC001023148918    0.0800
     44 H44        -4.1078    4.1050   50.3413 H       1  ZINC001023148918    0.0800
     45 H45        -5.6464    4.6329   51.0991 H       1  ZINC001023148918    0.0800
     46 H46        -7.5925    3.7676   54.5932 H       1  ZINC001023148918    0.0800
     47 H47        -8.9118    2.8875   53.7725 H       1  ZINC001023148918    0.0900
     48 H48       -10.7948    2.6016   55.1887 H       1  ZINC001023148918    0.3900
     49 H49        -8.5714    1.1861   60.4420 H       1  ZINC001023148918    0.1600
@<TRIPOS>BOND
     1     1     2    1
     2     1    31    1
     3     1    32    1
     4     1    33    1
     5     2    30    1
     6     2     3    2
     7     3     4    1
     8     4     5    1
     9     4     6    1
    10     5    34    1
    11     5    35    1
    12     5    36    1
    13     6     7    1
    14     6    30    2
    15     7     8    2
    16     7     9   am
    17     9    10    1
    18     9    37    1
    19    10    11    1
    20    10    27    1
    21    10    12    1
    22    12    13    1
    23    12    38    1
    24    12    39    1
    25    13    14   am
    26    13    26    1
    27    14    15    2
    28    14    16    1
    29    16    17    1
    30    16    23    1
    31    16    18    1
    32    18    19    1
    33    18    40    1
    34    18    41    1
    35    19    20    1
    36    19    25    1
    37    19    21    1
    38    21    22    1
    39    21    42    1
    40    21    43    1
    41    22    23    1
    42    22    44    1
    43    22    45    1
    44    23    24    1
    45    23    25    1
    46    26    27    1
    47    26    46    1
    48    26    47    1
    49    27    28    1
    50    27    29    1
    51    29    48    1
    52    30    49    1
@<TRIPOS>SUBSTRUCTURE
     1 ZINC001023148918        1 TEMP              0 ****  ****    0 ROOT


##########                                Name:    ZINC001039666729
##########                DOCK_Rotatable_Bonds:                   3
##########                         Heavy_Atoms:                  25
##########                    Molecular_Weight:             344.376
##########                DOCK_Rotatable_Bonds:                   3
##########                       Formal_Charge:          -0.0199998
##########                     HBond_Acceptors:                  10
##########                        HBond_Donors:                   2
##########                         Heavy_Atoms:                  25
##########                          Grid_Score:          -27.106001
##########                     Grid_vdw_energy:          -24.783342
##########                      Grid_es_energy:           -2.322658
##########           Internal_energy_repulsive:           67.662079

@<TRIPOS>MOLECULE
ZINC001039666729
 45 47 1 0 0
SMALL
USER_CHARGES


@<TRIPOS>ATOM
      1 C1         -7.3940    1.7377   55.4097 C.3     1  ZINC001039666729   -0.1100
      2 C2         -7.5755    1.5829   56.8977 C.ar    1  ZINC001039666729    0.2200
      3 C3         -7.2041    2.6028   57.7594 C.ar    1  ZINC001039666729   -0.3000
      4 C4         -7.3879    2.4198   59.1211 C.ar    1  ZINC001039666729    0.1900
      5 N5         -7.9090    1.2841   59.5549 N.ar    1  ZINC001039666729   -0.5800
      6 C6         -8.2536    0.3284   58.7041 C.ar    1  ZINC001039666729    0.6000
      7 N7         -8.7966   -0.8473   59.1925 N.pl3   1  ZINC001039666729   -0.5900
      8 C8         -8.4715   -1.4170   60.5358 C.3     1  ZINC001039666729    0.1200
      9 C9         -9.3076   -0.6694   61.5769 C.3     1  ZINC001039666729    0.0900
     10 N10       -10.7426   -0.9201   61.2929 N.am    1  ZINC001039666729   -0.7400
     11 C11       -11.3628    0.0754   60.5849 C.2     1  ZINC001039666729    0.5200
     12 O12       -10.7509    1.0634   60.2380 O.2     1  ZINC001039666729   -0.5200
     13 C13       -12.8225   -0.0853   60.2463 C.3     1  ZINC001039666729   -0.1500
     14 C14       -12.9959   -0.0916   58.7261 C.3     1  ZINC001039666729    0.1100
     15 N15       -12.1494   -1.1750   58.1627 N.am    1  ZINC001039666729   -0.6100
     16 C16       -12.5875   -2.4417   58.0213 C.2     1  ZINC001039666729    0.6100
     17 O17       -11.8526   -3.2906   57.5555 O.2     1  ZINC001039666729   -0.5200
     18 C18       -13.9616   -2.7987   58.4325 C.2     1  ZINC001039666729   -0.0400
     19 N19       -14.6427   -3.8832   58.0952 N.2     1  ZINC001039666729   -0.2500
     20 N20       -15.7999   -3.8289   58.6533 N.pl3   1  ZINC001039666729   -0.2300
     21 N21       -15.9277   -2.7569   59.3505 N.2     1  ZINC001039666729   -0.2800
     22 C22       -14.8199   -2.0597   59.2709 C.2     1  ZINC001039666729    0.0400
     23 C23       -10.7815   -0.7503   57.7673 C.3     1  ZINC001039666729    0.1100
     24 C24        -9.7779   -1.6850   58.4376 C.3     1  ZINC001039666729    0.1300
     25 N25        -8.0961    0.4739   57.3968 N.ar    1  ZINC001039666729   -0.5700
     26 H26        -8.2903    2.1840   54.9788 H       1  ZINC001039666729    0.0800
     27 H27        -6.5370    2.3820   55.2132 H       1  ZINC001039666729    0.0800
     28 H28        -7.2235    0.7592   54.9607 H       1  ZINC001039666729    0.0800
     29 H29        -6.7804    3.5202   57.3782 H       1  ZINC001039666729    0.1400
     30 H30        -7.1087    3.1948   59.8194 H       1  ZINC001039666729    0.1600
     31 H31        -8.7194   -2.4782   60.5564 H       1  ZINC001039666729    0.0800
     32 H32        -7.4109   -1.2810   60.7475 H       1  ZINC001039666729    0.0900
     33 H33        -9.0618   -1.0328   62.5747 H       1  ZINC001039666729    0.0800
     34 H34        -9.1021    0.3992   61.5141 H       1  ZINC001039666729    0.1000
     35 H35       -11.2033   -1.7224   61.5847 H       1  ZINC001039666729    0.4100
     36 H36       -13.1895   -1.0257   60.6577 H       1  ZINC001039666729    0.0800
     37 H37       -13.3878    0.7431   60.6731 H       1  ZINC001039666729    0.1100
     38 H38       -14.0410   -0.2747   58.4766 H       1  ZINC001039666729    0.1100
     39 H39       -12.6832    0.8691   58.3170 H       1  ZINC001039666729    0.0900
     40 H40       -16.4865   -4.5077   58.5599 H       1  ZINC001039666729    0.4700
     41 H41       -14.6112   -1.1114   59.7439 H       1  ZINC001039666729    0.2100
     42 H42       -10.6770   -0.8107   56.6839 H       1  ZINC001039666729    0.0800
     43 H43       -10.6052    0.2736   58.0970 H       1  ZINC001039666729    0.1200
     44 H44        -9.2535   -2.2675   57.6802 H       1  ZINC001039666729    0.0700
     45 H45       -10.2980   -2.3536   59.1236 H       1  ZINC001039666729    0.0900
@<TRIPOS>BOND
     1     1     2    1
     2     1    26    1
     3     1    27    1
     4     1    28    1
     5     2    25   ar
     6     2     3   ar
     7     3     4   ar
     8     3    29    1
     9     4     5   ar
    10     4    30    1
    11     5     6   ar
    12     6     7    1
    13     6    25   ar
    14     7    24    1
    15     7     8    1
    16     8     9    1
    17     8    31    1
    18     8    32    1
    19     9    10    1
    20     9    33    1
    21     9    34    1
    22    10    11   am
    23    10    35    1
    24    11    12    2
    25    11    13    1
    26    13    14    1
    27    13    36    1
    28    13    37    1
    29    14    15    1
    30    14    38    1
    31    14    39    1
    32    15    16   am
    33    15    23    1
    34    16    17    2
    35    16    18    1
    36    18    22    1
    37    18    19    2
    38    19    20    1
    39    20    21    1
    40    20    40    1
    41    21    22    2
    42    22    41    1
    43    23    24    1
    44    23    42    1
    45    23    43    1
    46    24    44    1
    47    24    45    1
@<TRIPOS>SUBSTRUCTURE
     1 ZINC001039666729        1 TEMP              0 ****  ****    0 ROOT


##########                                Name:    ZINC000676204775
##########                DOCK_Rotatable_Bonds:                   4
##########                         Heavy_Atoms:                  25
##########                    Molecular_Weight:             359.452
##########                DOCK_Rotatable_Bonds:                   4
##########                       Formal_Charge:          0.00999978
##########                     HBond_Acceptors:                   8
##########                        HBond_Donors:                   2
##########                         Heavy_Atoms:                  25
##########                          Grid_Score:          -27.078983
##########                     Grid_vdw_energy:          -26.098219
##########                      Grid_es_energy:           -0.980765
##########           Internal_energy_repulsive:            5.116863

@<TRIPOS>MOLECULE
ZINC000676204775
 46 49 1 0 0
SMALL
USER_CHARGES


@<TRIPOS>ATOM
      1 C1         -7.6905    1.5062   65.3560 C.3     1  ZINC000676204775   -0.1600
      2 C2         -8.2318    0.1220   64.9924 C.3     1  ZINC000676204775    0.1600
      3 C3         -8.5758   -0.6432   66.2718 C.3     1  ZINC000676204775   -0.1600
      4 N4         -9.4366    0.2688   64.1721 N.pl3   1  ZINC000676204775   -0.3900
      5 N5        -10.5684    1.0140   64.5187 N.2     1  ZINC000676204775   -0.2500
      6 C6        -11.4605    0.9392   63.5727 C.2     1  ZINC000676204775    0.0900
      7 C7        -10.9168    0.0960   62.5131 C.ar    1  ZINC000676204775   -0.2100
      8 C8        -11.3982   -0.3406   61.2741 C.ar    1  ZINC000676204775    0.0800
      9 C9        -10.6209   -1.1472   60.4940 C.ar    1  ZINC000676204775   -0.7200
     10 S10       -11.2257   -1.6973   58.9332 S.o2    1  ZINC000676204775    2.6900
     11 O11       -10.4981   -2.8752   58.6134 O.2     1  ZINC000676204775   -0.9300
     12 O12       -12.6438   -1.6582   59.0159 O.2     1  ZINC000676204775   -0.9600
     13 N13       -10.7913   -0.5599   57.8107 N.am    1  ZINC000676204775   -1.1100
     14 C14        -9.3763   -0.2494   57.5923 C.3     1  ZINC000676204775    0.2400
     15 H15        -8.7554   -0.9683   58.1269 H       1  ZINC000676204775    0.1000
     16 C16        -9.0745    1.1685   58.0932 C.3     1  ZINC000676204775   -0.1200
     17 C17        -7.6694    1.5842   57.6523 C.3     1  ZINC000676204775   -0.1200
     18 C18        -7.6569    1.8440   56.1407 C.3     1  ZINC000676204775   -0.0400
     19 C19        -8.2815    0.6550   55.4532 C.2     1  ZINC000676204775   -0.2300
     20 C20        -8.2104    0.3094   54.1545 C.2     1  ZINC000676204775    0.0600
     21 N21        -8.9203   -0.8300   53.9948 N.pl3   1  ZINC000676204775   -0.4800
     22 N22        -9.4451   -1.1926   55.2447 N.2     1  ZINC000676204775   -0.2400
     23 C23        -9.0646   -0.3055   56.1164 C.2     1  ZINC000676204775    0.0500
     24 C24        -9.3574   -1.5382   60.9189 C.ar    1  ZINC000676204775    0.0100
     25 C25        -8.8654   -1.1250   62.1247 C.ar    1  ZINC000676204775   -0.1500
     26 C26        -9.6332   -0.2972   62.9396 C.ar    1  ZINC000676204775    0.1700
     27 H27        -7.4453    2.0513   64.4445 H       1  ZINC000676204775    0.0600
     28 H28        -8.4466    2.0562   65.9161 H       1  ZINC000676204775    0.0700
     29 H29        -6.7940    1.3969   65.9663 H       1  ZINC000676204775    0.0800
     30 H30        -7.4756   -0.4281   64.4322 H       1  ZINC000676204775    0.1000
     31 H31        -9.3320   -0.0931   66.8320 H       1  ZINC000676204775    0.0700
     32 H32        -8.9614   -1.6293   66.0128 H       1  ZINC000676204775    0.0600
     33 H33        -7.6793   -0.7524   66.8821 H       1  ZINC000676204775    0.0800
     34 H34       -12.4296    1.4159   63.5726 H       1  ZINC000676204775    0.2000
     35 H35       -12.3795   -0.0412   60.9369 H       1  ZINC000676204775    0.1500
     36 H36       -11.4737   -0.0993   57.2977 H       1  ZINC000676204775    0.4200
     37 H37        -9.8050    1.8627   57.6781 H       1  ZINC000676204775    0.0800
     38 H38        -9.1338    1.1888   59.1814 H       1  ZINC000676204775    0.0800
     39 H39        -7.3783    2.4932   58.1787 H       1  ZINC000676204775    0.0700
     40 H40        -6.9643    0.7874   57.8891 H       1  ZINC000676204775    0.0700
     41 H41        -8.2323    2.7422   55.9171 H       1  ZINC000676204775    0.0700
     42 H42        -6.6300    1.9694   55.7975 H       1  ZINC000676204775    0.0700
     43 H43        -7.6818    0.8453   53.3801 H       1  ZINC000676204775    0.1800
     44 H44        -9.0449   -1.3123   53.1625 H       1  ZINC000676204775    0.4400
     45 H45        -8.7568   -2.1772   60.2884 H       1  ZINC000676204775    0.1500
     46 H46        -7.8814   -1.4363   62.4431 H       1  ZINC000676204775    0.1300
@<TRIPOS>BOND
     1     1     2    1
     2     1    27    1
     3     1    28    1
     4     1    29    1
     5     2     3    1
     6     2     4    1
     7     2    30    1
     8     3    31    1
     9     3    32    1
    10     3    33    1
    11     4    26    1
    12     4     5    1
    13     5     6    2
    14     6     7    1
    15     6    34    1
    16     7    26   ar
    17     7     8   ar
    18     8     9   ar
    19     8    35    1
    20     9    10    1
    21     9    24   ar
    22    10    11    2
    23    10    12    2
    24    10    13   am
    25    13    14    1
    26    13    36    1
    27    14    15    1
    28    14    23    1
    29    14    16    1
    30    16    17    1
    31    16    37    1
    32    16    38    1
    33    17    18    1
    34    17    39    1
    35    17    40    1
    36    18    19    1
    37    18    41    1
    38    18    42    1
    39    19    23    1
    40    19    20    2
    41    20    21    1
    42    20    43    1
    43    21    22    1
    44    21    44    1
    45    22    23    2
    46    24    25   ar
    47    24    45    1
    48    25    26   ar
    49    25    46    1
@<TRIPOS>SUBSTRUCTURE
     1 ZINC000676204775        1 TEMP              0 ****  ****    0 ROOT


##########                                Name:    ZINC001318556452
##########                DOCK_Rotatable_Bonds:                   4
##########                         Heavy_Atoms:                  26
##########                    Molecular_Weight:             368.456
##########                DOCK_Rotatable_Bonds:                   4
##########                       Formal_Charge:          -0.0200005
##########                     HBond_Acceptors:                   6
##########                        HBond_Donors:                   1
##########                         Heavy_Atoms:                  26
##########                          Grid_Score:          -27.031221
##########                     Grid_vdw_energy:          -26.843931
##########                      Grid_es_energy:           -0.187291
##########           Internal_energy_repulsive:           18.524723

@<TRIPOS>MOLECULE
ZINC001318556452
 46 48 1 0 0
SMALL
USER_CHARGES


@<TRIPOS>ATOM
      1 C1         -8.3937    0.5612   58.0511 C.3     1  ZINC001318556452   -0.1300
      2 C2         -9.1197   -0.7552   58.1565 C.ar    1  ZINC001318556452   -0.1000
      3 C3         -9.6701   -1.3332   57.0298 C.ar    1  ZINC001318556452   -0.0500
      4 C4         -9.5449   -0.6466   55.6941 C.3     1  ZINC001318556452   -0.4100
      5 S5        -10.5454   -1.5287   54.4647 S.o     1  ZINC001318556452    1.2500
      6 C6        -10.2702   -0.5691   52.9501 C.3     1  ZINC001318556452   -0.4900
      7 O7        -11.9169   -1.4553   54.8293 O.2     1  ZINC001318556452   -0.8400
      8 C8        -10.3358   -2.5418   57.1255 C.ar    1  ZINC001318556452   -0.1200
      9 C9        -10.4532   -3.1748   58.3492 C.ar    1  ZINC001318556452   -0.1000
     10 C10        -9.9058   -2.6017   59.4804 C.ar    1  ZINC001318556452   -0.1200
     11 C11        -9.2310   -1.3914   59.3866 C.ar    1  ZINC001318556452    0.1400
     12 N12        -8.6753   -0.8088   60.5294 N.am    1  ZINC001318556452   -0.6600
     13 C13        -9.4699   -0.1875   61.4233 C.2     1  ZINC001318556452    0.5600
     14 O14       -10.6692   -0.1338   61.2360 O.2     1  ZINC001318556452   -0.5000
     15 C15        -8.8805    0.4304   62.6354 C.2     1  ZINC001318556452   -0.0300
     16 C16        -8.4159   -0.3454   63.6589 C.2     1  ZINC001318556452   -0.1600
     17 C17        -7.8400    0.2930   64.8401 C.2     1  ZINC001318556452    0.5300
     18 O18        -7.4255   -0.3983   65.7535 O.2     1  ZINC001318556452   -0.5200
     19 N19        -7.7603    1.6317   64.9340 N.am    1  ZINC001318556452   -0.5200
     20 C20        -7.1750    2.2332   66.1347 C.3     1  ZINC001318556452    0.0600
     21 C21        -8.2177    2.4498   63.9232 C.ar    1  ZINC001318556452    0.1800
     22 C22        -8.1258    3.8342   64.0402 C.ar    1  ZINC001318556452   -0.1700
     23 C23        -8.5870    4.6402   63.0222 C.ar    1  ZINC001318556452   -0.0600
     24 C24        -9.1437    4.0855   61.8781 C.ar    1  ZINC001318556452   -0.1500
     25 C25        -9.2438    2.7297   61.7421 C.ar    1  ZINC001318556452   -0.0600
     26 C26        -8.7774    1.8925   62.7596 C.ar    1  ZINC001318556452   -0.1100
     27 H27        -7.3387    0.3789   57.8468 H       1  ZINC001318556452    0.0800
     28 H28        -8.8242    1.1497   57.2408 H       1  ZINC001318556452    0.0800
     29 H29        -8.4931    1.1072   58.9892 H       1  ZINC001318556452    0.0700
     30 H30        -9.8975    0.3813   55.7795 H       1  ZINC001318556452    0.1000
     31 H31        -8.5008   -0.6478   55.3813 H       1  ZINC001318556452    0.1300
     32 H32        -9.2079   -0.5722   52.7059 H       1  ZINC001318556452    0.1100
     33 H33       -10.8328   -1.0153   52.1300 H       1  ZINC001318556452    0.1100
     34 H34       -10.6046    0.4569   53.1042 H       1  ZINC001318556452    0.0800
     35 H35       -10.7651   -2.9919   56.2427 H       1  ZINC001318556452    0.1200
     36 H36       -10.9740   -4.1183   58.4205 H       1  ZINC001318556452    0.1300
     37 H37        -9.9983   -3.0965   60.4358 H       1  ZINC001318556452    0.1500
     38 H38        -7.7179   -0.8517   60.6790 H       1  ZINC001318556452    0.4100
     39 H39        -8.4742   -1.4219   63.5958 H       1  ZINC001318556452    0.1600
     40 H40        -6.8691    1.4458   66.8235 H       1  ZINC001318556452    0.1000
     41 H41        -6.3064    2.8297   65.8558 H       1  ZINC001318556452    0.0800
     42 H42        -7.9142    2.8720   66.6183 H       1  ZINC001318556452    0.0800
     43 H43        -7.6945    4.2752   64.9267 H       1  ZINC001318556452    0.1400
     44 H44        -8.5149    5.7137   63.1155 H       1  ZINC001318556452    0.1300
     45 H45        -9.5009    4.7308   61.0892 H       1  ZINC001318556452    0.1300
     46 H46        -9.6782    2.3058   60.8488 H       1  ZINC001318556452    0.1700
@<TRIPOS>BOND
     1     1     2    1
     2     1    27    1
     3     1    28    1
     4     1    29    1
     5     2    11   ar
     6     2     3   ar
     7     3     4    1
     8     3     8   ar
     9     4     5    1
    10     4    30    1
    11     4    31    1
    12     5     6    1
    13     5     7    2
    14     6    32    1
    15     6    33    1
    16     6    34    1
    17     8     9   ar
    18     8    35    1
    19     9    10   ar
    20     9    36    1
    21    10    11   ar
    22    10    37    1
    23    11    12    1
    24    12    13   am
    25    12    38    1
    26    13    14    2
    27    13    15    1
    28    15    26    1
    29    15    16    2
    30    16    17    1
    31    16    39    1
    32    17    18    2
    33    17    19   am
    34    19    20    1
    35    19    21    1
    36    20    40    1
    37    20    41    1
    38    20    42    1
    39    21    26   ar
    40    21    22   ar
    41    22    23   ar
    42    22    43    1
    43    23    24   ar
    44    23    44    1
    45    24    25   ar
    46    24    45    1
    47    25    26   ar
    48    25    46    1
@<TRIPOS>SUBSTRUCTURE
     1 ZINC001318556452        1 TEMP              0 ****  ****    0 ROOT


##########                                Name:    ZINC001193456967
##########                DOCK_Rotatable_Bonds:                   3
##########                         Heavy_Atoms:                  27
##########                    Molecular_Weight:             392.451
##########                DOCK_Rotatable_Bonds:                   3
##########                       Formal_Charge:           0.0300002
##########                     HBond_Acceptors:                   8
##########                        HBond_Donors:                   0
##########                         Heavy_Atoms:                  27
##########                          Grid_Score:          -26.996952
##########                     Grid_vdw_energy:          -27.348652
##########                      Grid_es_energy:            0.351701
##########           Internal_energy_repulsive:           36.536682

@<TRIPOS>MOLECULE
ZINC001193456967
 48 50 1 0 0
SMALL
USER_CHARGES


@<TRIPOS>ATOM
      1 C1         -8.5875    3.0375   64.4272 C.3     1  ZINC001193456967   -0.1400
      2 C2         -8.7077    2.0291   63.3139 C.ar    1  ZINC001193456967    0.0300
      3 C3         -9.1868    2.4187   62.0772 C.ar    1  ZINC001193456967   -0.1400
      4 C4         -9.2971    1.4935   61.0559 C.ar    1  ZINC001193456967    0.0300
      5 C5         -8.9279    0.1792   61.2711 C.ar    1  ZINC001193456967   -0.6900
      6 S6         -9.0690   -1.0001   59.9696 S.o2    1  ZINC001193456967    2.7100
      7 O7         -8.6806   -0.3309   58.7778 O.2     1  ZINC001193456967   -0.9300
      8 O8         -8.4414   -2.1874   60.4342 O.2     1  ZINC001193456967   -0.9400
      9 N9        -10.6777   -1.3562   59.8030 N.am    1  ZINC001193456967   -1.0000
     10 C10       -11.5432   -1.9318   60.8485 C.3     1  ZINC001193456967    0.1100
     11 C11       -12.6903   -2.6282   60.0747 C.3     1  ZINC001193456967   -0.1200
     12 C12       -12.9082   -1.6478   58.8920 C.3     1  ZINC001193456967   -0.0500
     13 H13       -13.5501   -0.8192   59.1912 H       1  ZINC001193456967    0.1000
     14 C14       -13.4902   -2.3679   57.7029 C.ar    1  ZINC001193456967   -0.0800
     15 C15       -14.4245   -1.7369   56.9027 C.ar    1  ZINC001193456967   -0.0800
     16 C16       -14.9589   -2.3962   55.8121 C.ar    1  ZINC001193456967   -0.1500
     17 C17       -14.5580   -3.6890   55.5206 C.ar    1  ZINC001193456967    0.1000
     18 F18       -15.0794   -4.3344   54.4544 F       1  ZINC001193456967   -0.1400
     19 C19       -13.6219   -4.3198   56.3225 C.ar    1  ZINC001193456967   -0.1500
     20 C20       -13.0853   -3.6568   57.4098 C.ar    1  ZINC001193456967   -0.0800
     21 C21       -11.4809   -1.1446   58.5898 C.3     1  ZINC001193456967    0.1900
     22 C22       -11.5180    0.3431   58.2346 C.3     1  ZINC001193456967   -0.1800
     23 C23       -10.8816   -1.9444   57.4313 C.3     1  ZINC001193456967   -0.1800
     24 C24        -8.4474   -0.2103   62.5077 C.ar    1  ZINC001193456967    0.0400
     25 C25        -8.3335    0.7154   63.5276 C.ar    1  ZINC001193456967   -0.0600
     26 N26        -7.8192    0.2986   64.8514 N.pl3   1  ZINC001193456967    0.0200
     27 O27        -7.1007    1.0474   65.4891 O.2     1  ZINC001193456967   -0.1400
     28 O28        -8.1143   -0.7934   65.3032 O.2     1  ZINC001193456967   -0.1500
     29 H29        -7.5713    3.4309   64.4530 H       1  ZINC001193456967    0.1100
     30 H30        -9.2888    3.8540   64.2552 H       1  ZINC001193456967    0.0900
     31 H31        -8.8154    2.5572   65.3787 H       1  ZINC001193456967    0.0800
     32 H32        -9.4753    3.4458   61.9091 H       1  ZINC001193456967    0.1600
     33 H33        -9.6721    1.7978   60.0898 H       1  ZINC001193456967    0.1600
     34 H34       -10.9891   -2.6595   61.4413 H       1  ZINC001193456967    0.0900
     35 H35       -11.9407   -1.1439   61.4882 H       1  ZINC001193456967    0.0700
     36 H36       -12.3803   -3.6099   59.7163 H       1  ZINC001193456967    0.0900
     37 H37       -13.5870   -2.7037   60.6898 H       1  ZINC001193456967    0.0900
     38 H38       -14.7370   -0.7285   57.1303 H       1  ZINC001193456967    0.1400
     39 H39       -15.6892   -1.9033   55.1875 H       1  ZINC001193456967    0.1400
     40 H40       -13.3087   -5.3284   56.0962 H       1  ZINC001193456967    0.1400
     41 H41       -12.3549   -4.1484   58.0352 H       1  ZINC001193456967    0.1300
     42 H42       -11.9280    0.9066   59.0727 H       1  ZINC001193456967    0.0700
     43 H43       -10.5070    0.6913   58.0226 H       1  ZINC001193456967    0.0600
     44 H44       -12.1451    0.4912   57.3555 H       1  ZINC001193456967    0.0800
     45 H45       -11.5570   -1.9075   56.5766 H       1  ZINC001193456967    0.0800
     46 H46        -9.9194   -1.5148   57.1527 H       1  ZINC001193456967    0.0900
     47 H47       -10.7415   -2.9805   57.7393 H       1  ZINC001193456967    0.0700
     48 H48        -8.1586   -1.2373   62.6757 H       1  ZINC001193456967    0.1600
@<TRIPOS>BOND
     1     1     2    1
     2     1    29    1
     3     1    30    1
     4     1    31    1
     5     2    25   ar
     6     2     3   ar
     7     3     4   ar
     8     3    32    1
     9     4     5   ar
    10     4    33    1
    11     5     6    1
    12     5    24   ar
    13     6     7    2
    14     6     8    2
    15     6     9   am
    16     9    21    1
    17     9    10    1
    18    10    11    1
    19    10    34    1
    20    10    35    1
    21    11    12    1
    22    11    36    1
    23    11    37    1
    24    12    13    1
    25    12    14    1
    26    12    21    1
    27    14    20   ar
    28    14    15   ar
    29    15    16   ar
    30    15    38    1
    31    16    17   ar
    32    16    39    1
    33    17    18    1
    34    17    19   ar
    35    19    20   ar
    36    19    40    1
    37    20    41    1
    38    21    22    1
    39    21    23    1
    40    22    42    1
    41    22    43    1
    42    22    44    1
    43    23    45    1
    44    23    46    1
    45    23    47    1
    46    24    25   ar
    47    24    48    1
    48    25    26    1
    49    26    27    2
    50    26    28    2
@<TRIPOS>SUBSTRUCTURE
     1 ZINC001193456967        1 TEMP              0 ****  ****    0 ROOT


##########                                Name:    ZINC000464706598
##########                DOCK_Rotatable_Bonds:                   4
##########                         Heavy_Atoms:                  26
##########                    Molecular_Weight:             412.286
##########                DOCK_Rotatable_Bonds:                   4
##########                       Formal_Charge:           0.0100001
##########                     HBond_Acceptors:                   5
##########                        HBond_Donors:                   0
##########                         Heavy_Atoms:                  26
##########                          Grid_Score:          -26.923719
##########                     Grid_vdw_energy:          -26.282719
##########                      Grid_es_energy:           -0.641000
##########           Internal_energy_repulsive:           58.741238

@<TRIPOS>MOLECULE
ZINC000464706598
 44 47 1 0 0
SMALL
USER_CHARGES


@<TRIPOS>ATOM
      1 O1         -8.8917   -1.2277   55.3828 O.2     1  ZINC000464706598   -0.5000
      2 C2         -9.1703   -0.7811   54.2865 C.2     1  ZINC000464706598    0.5900
      3 C3         -8.0985   -0.3339   53.3786 C.2     1  ZINC000464706598   -0.2800
      4 C4         -7.2087    0.6970   53.6063 C.2     1  ZINC000464706598    0.1300
      5 N5         -6.3995    0.7736   52.5342 N.pl3   1  ZINC000464706598   -0.3100
      6 C6         -5.3525    1.6894   52.3616 C.ar    1  ZINC000464706598    0.1700
      7 C7         -5.0243    2.5710   53.3829 C.ar    1  ZINC000464706598   -0.1300
      8 C8         -3.9920    3.4720   53.2105 C.ar    1  ZINC000464706598   -0.0600
      9 C9         -3.2853    3.4971   52.0212 C.ar    1  ZINC000464706598   -0.1000
     10 Br10       -1.8729    4.7327   51.7883 Br      1  ZINC000464706598   -0.0400
     11 C11        -3.6101    2.6194   51.0021 C.ar    1  ZINC000464706598   -0.0700
     12 C12        -4.6381    1.7128   51.1713 C.ar    1  ZINC000464706598   -0.1100
     13 N13        -6.7796   -0.2161   51.6208 N.2     1  ZINC000464706598   -0.2800
     14 C14        -7.7855   -0.8841   52.1150 C.2     1  ZINC000464706598    0.0700
     15 N15       -10.4588   -0.7003   53.8994 N.am    1  ZINC000464706598   -0.6100
     16 C16       -10.8200   -0.1693   52.5754 C.3     1  ZINC000464706598    0.0400
     17 C17       -11.8988    0.9035   52.7627 C.3     1  ZINC000464706598    0.0500
     18 O18       -12.9680    0.3647   53.5438 O.3     1  ZINC000464706598   -0.3700
     19 C19       -12.5892   -0.0205   54.8675 C.3     1  ZINC000464706598    0.0500
     20 C20       -11.5454   -1.1459   54.7859 C.3     1  ZINC000464706598    0.1600
     21 H21       -12.0081   -2.0473   54.3840 H       1  ZINC000464706598    0.0900
     22 C22       -10.9945   -1.4278   56.1599 C.ar    1  ZINC000464706598   -0.0500
     23 C23       -10.7110   -0.3823   57.0188 C.ar    1  ZINC000464706598   -0.1000
     24 C24       -10.2056   -0.6408   58.2791 C.ar    1  ZINC000464706598   -0.1100
     25 C25        -9.9840   -1.9449   58.6809 C.ar    1  ZINC000464706598   -0.1200
     26 C26       -10.2684   -2.9903   57.8224 C.ar    1  ZINC000464706598   -0.1100
     27 C27       -10.7779   -2.7321   56.5636 C.ar    1  ZINC000464706598   -0.1000
     28 H28        -7.1698    1.3264   54.4831 H       1  ZINC000464706598    0.1900
     29 H29        -5.5760    2.5523   54.3112 H       1  ZINC000464706598    0.1400
     30 H30        -3.7363    4.1581   54.0045 H       1  ZINC000464706598    0.1500
     31 H31        -3.0568    2.6407   50.0749 H       1  ZINC000464706598    0.1500
     32 H32        -4.8910    1.0276   50.3758 H       1  ZINC000464706598    0.1500
     33 H33        -8.2944   -1.7090   51.6388 H       1  ZINC000464706598    0.2100
     34 H34        -9.9415    0.2718   52.1045 H       1  ZINC000464706598    0.1200
     35 H35       -11.2071   -0.9740   51.9503 H       1  ZINC000464706598    0.0800
     36 H36       -11.4709    1.7646   53.2760 H       1  ZINC000464706598    0.0600
     37 H37       -12.2790    1.2115   51.7886 H       1  ZINC000464706598    0.1100
     38 H38       -12.1637    0.8371   55.3886 H       1  ZINC000464706598    0.0600
     39 H39       -13.4661   -0.3774   55.4078 H       1  ZINC000464706598    0.1100
     40 H40       -10.8840    0.6365   56.7049 H       1  ZINC000464706598    0.1100
     41 H41        -9.9834    0.1760   58.9499 H       1  ZINC000464706598    0.1200
     42 H42        -9.5885   -2.1468   59.6653 H       1  ZINC000464706598    0.1200
     43 H43       -10.0950   -4.0091   58.1361 H       1  ZINC000464706598    0.1200
     44 H44       -11.0000   -3.5489   55.8929 H       1  ZINC000464706598    0.1100
@<TRIPOS>BOND
     1     1     2    2
     2     2     3    1
     3     2    15   am
     4     3    14    1
     5     3     4    2
     6     4     5    1
     7     4    28    1
     8     5     6    1
     9     5    13    1
    10     6    12   ar
    11     6     7   ar
    12     7     8   ar
    13     7    29    1
    14     8     9   ar
    15     8    30    1
    16     9    10    1
    17     9    11   ar
    18    11    12   ar
    19    11    31    1
    20    12    32    1
    21    13    14    2
    22    14    33    1
    23    15    20    1
    24    15    16    1
    25    16    17    1
    26    16    34    1
    27    16    35    1
    28    17    18    1
    29    17    36    1
    30    17    37    1
    31    18    19    1
    32    19    20    1
    33    19    38    1
    34    19    39    1
    35    20    21    1
    36    20    22    1
    37    22    27   ar
    38    22    23   ar
    39    23    24   ar
    40    23    40    1
    41    24    25   ar
    42    24    41    1
    43    25    26   ar
    44    25    42    1
    45    26    27   ar
    46    26    43    1
    47    27    44    1
@<TRIPOS>SUBSTRUCTURE
     1 ZINC000464706598        1 TEMP              0 ****  ****    0 ROOT


##########                                Name:    ZINC000437443367
##########                DOCK_Rotatable_Bonds:                   8
##########                         Heavy_Atoms:                  24
##########                    Molecular_Weight:             334.434
##########                DOCK_Rotatable_Bonds:                   8
##########                       Formal_Charge:          -0.0500003
##########                     HBond_Acceptors:                   5
##########                        HBond_Donors:                   1
##########                         Heavy_Atoms:                  24
##########                          Grid_Score:          -26.915464
##########                     Grid_vdw_energy:          -26.520563
##########                      Grid_es_energy:           -0.394901
##########           Internal_energy_repulsive:           22.280939

@<TRIPOS>MOLECULE
ZINC000437443367
 51 52 1 0 0
SMALL
USER_CHARGES


@<TRIPOS>ATOM
      1 C1         -6.6648    0.6712   53.9459 C.3     1  ZINC000437443367   -0.1200
      2 C2         -8.0347    0.0552   53.8239 C.ar    1  ZINC000437443367   -0.1000
      3 C3         -8.8163   -0.1172   54.9489 C.ar    1  ZINC000437443367   -0.1200
      4 C4        -10.0792   -0.6852   54.8358 C.ar    1  ZINC000437443367    0.1400
      5 N5        -10.8726   -0.8603   55.9735 N.am    1  ZINC000437443367   -0.6400
      6 C6        -10.9075   -2.0566   56.5932 C.2     1  ZINC000437443367    0.5000
      7 O7        -10.2500   -2.9820   56.1637 O.2     1  ZINC000437443367   -0.4800
      8 C8        -11.7551   -2.2435   57.8086 C.2     1  ZINC000437443367    0.5100
      9 O9        -12.8648   -2.7239   57.7064 O.2     1  ZINC000437443367   -0.5200
     10 N10       -11.2874   -1.8788   59.0189 N.am    1  ZINC000437443367   -0.5700
     11 C11       -12.1187   -2.0621   60.2112 C.3     1  ZINC000437443367    0.0900
     12 C12       -13.2875   -1.0753   60.1746 C.3     1  ZINC000437443367   -0.1200
     13 C13       -13.9882   -1.0641   61.5347 C.3     1  ZINC000437443367   -0.0900
     14 C14       -15.1286   -0.0444   61.5125 C.3     1  ZINC000437443367   -0.1400
     15 C15       -14.5535   -2.4552   61.8285 C.3     1  ZINC000437443367   -0.1500
     16 C16        -9.9477   -1.2990   59.1420 C.3     1  ZINC000437443367    0.1300
     17 C17       -10.0508    0.1995   59.4943 C.3     1  ZINC000437443367   -0.1300
     18 C18        -9.9142    0.2373   61.0367 C.3     1  ZINC000437443367   -0.1300
     19 C19        -8.8539   -0.8575   61.3129 C.3     1  ZINC000437443367   -0.1200
     20 C20        -9.1867   -1.9710   60.2984 C.3     1  ZINC000437443367   -0.1400
     21 C21       -10.5525   -1.0784   53.5905 C.ar    1  ZINC000437443367   -0.1100
     22 C22        -9.7672   -0.9040   52.4679 C.ar    1  ZINC000437443367   -0.1300
     23 C23        -8.5110   -0.3325   52.5823 C.ar    1  ZINC000437443367    0.0800
     24 F24        -7.7445   -0.1629   51.4829 F       1  ZINC000437443367   -0.1400
     25 H25        -6.7423    1.7532   53.8404 H       1  ZINC000437443367    0.0800
     26 H26        -6.2440    0.4307   54.9222 H       1  ZINC000437443367    0.0700
     27 H27        -6.0174    0.2752   53.1636 H       1  ZINC000437443367    0.0700
     28 H28        -8.4462    0.1889   55.9162 H       1  ZINC000437443367    0.1400
     29 H29       -11.3980   -0.1207   56.3169 H       1  ZINC000437443367    0.4200
     30 H30       -12.5042   -3.0813   60.2320 H       1  ZINC000437443367    0.0900
     31 H31       -11.5190   -1.8820   61.1034 H       1  ZINC000437443367    0.1000
     32 H32       -12.9129   -0.0766   59.9506 H       1  ZINC000437443367    0.0700
     33 H33       -13.9955   -1.3792   59.4036 H       1  ZINC000437443367    0.0600
     34 H34       -13.2721   -0.7917   62.3100 H       1  ZINC000437443367    0.0600
     35 H35       -15.8445   -0.3169   60.7371 H       1  ZINC000437443367    0.0600
     36 H36       -15.6277   -0.0364   62.4814 H       1  ZINC000437443367    0.0400
     37 H37       -14.7258    0.9466   61.3032 H       1  ZINC000437443367    0.0600
     38 H38       -13.7411   -3.1817   61.8443 H       1  ZINC000437443367    0.0500
     39 H39       -15.0527   -2.4472   62.7975 H       1  ZINC000437443367    0.0500
     40 H40       -15.2694   -2.7276   61.0532 H       1  ZINC000437443367    0.0500
     41 H41        -9.3985   -1.4270   58.2092 H       1  ZINC000437443367    0.1000
     42 H42        -9.2406    0.7581   59.0258 H       1  ZINC000437443367    0.0800
     43 H43       -11.0177    0.5979   59.1870 H       1  ZINC000437443367    0.0700
     44 H44        -9.5581    1.2124   61.3691 H       1  ZINC000437443367    0.0700
     45 H45       -10.8613   -0.0128   61.5146 H       1  ZINC000437443367    0.0700
     46 H46        -7.8504   -0.4696   61.1380 H       1  ZINC000437443367    0.0700
     47 H47        -8.9474   -1.2304   62.3329 H       1  ZINC000437443367    0.0700
     48 H48        -9.8142   -2.7286   60.7679 H       1  ZINC000437443367    0.0800
     49 H49        -8.2678   -2.4245   59.9269 H       1  ZINC000437443367    0.0700
     50 H50       -11.5337   -1.5204   53.5003 H       1  ZINC000437443367    0.1600
     51 H51       -10.1348   -1.2096   51.4994 H       1  ZINC000437443367    0.1400
@<TRIPOS>BOND
     1     1     2    1
     2     1    25    1
     3     1    26    1
     4     1    27    1
     5     2    23   ar
     6     2     3   ar
     7     3     4   ar
     8     3    28    1
     9     4     5    1
    10     4    21   ar
    11     5     6   am
    12     5    29    1
    13     6     7    2
    14     6     8    1
    15     8     9    2
    16     8    10   am
    17    10    11    1
    18    10    16    1
    19    11    12    1
    20    11    30    1
    21    11    31    1
    22    12    13    1
    23    12    32    1
    24    12    33    1
    25    13    14    1
    26    13    15    1
    27    13    34    1
    28    14    35    1
    29    14    36    1
    30    14    37    1
    31    15    38    1
    32    15    39    1
    33    15    40    1
    34    16    20    1
    35    16    17    1
    36    16    41    1
    37    17    18    1
    38    17    42    1
    39    17    43    1
    40    18    19    1
    41    18    44    1
    42    18    45    1
    43    19    20    1
    44    19    46    1
    45    19    47    1
    46    20    48    1
    47    20    49    1
    48    21    22   ar
    49    21    50    1
    50    22    23   ar
    51    22    51    1
    52    23    24    1
@<TRIPOS>SUBSTRUCTURE
     1 ZINC000437443367        1 TEMP              0 ****  ****    0 ROOT


##########                                Name:    ZINC000543020509
##########                DOCK_Rotatable_Bonds:                   5
##########                         Heavy_Atoms:                  26
##########                    Molecular_Weight:              366.81
##########                DOCK_Rotatable_Bonds:                   5
##########                       Formal_Charge:               -0.02
##########                     HBond_Acceptors:                   8
##########                        HBond_Donors:                   1
##########                         Heavy_Atoms:                  26
##########                          Grid_Score:          -26.879910
##########                     Grid_vdw_energy:          -27.538713
##########                      Grid_es_energy:            0.658804
##########           Internal_energy_repulsive:           14.758371

@<TRIPOS>MOLECULE
ZINC000543020509
 41 43 1 0 0
SMALL
USER_CHARGES


@<TRIPOS>ATOM
      1 C1         -6.8179    2.9829   49.7660 C.3     1  ZINC000543020509    0.0800
      2 N2         -7.5629    2.7565   51.0070 N.pl3   1  ZINC000543020509   -0.6200
      3 C3         -8.2874    3.8622   51.6385 C.3     1  ZINC000543020509    0.0900
      4 C4         -7.5825    1.4908   51.5860 C.ar    1  ZINC000543020509    0.2500
      5 C5         -6.8362    0.4458   51.0441 C.ar    1  ZINC000543020509   -0.2200
      6 C6         -6.8792   -0.7984   51.6457 C.ar    1  ZINC000543020509    0.1400
      7 N7         -7.6124   -1.0075   52.7186 N.ar    1  ZINC000543020509   -0.5000
      8 C8         -8.3396   -0.0415   53.2696 C.ar    1  ZINC000543020509    0.1100
      9 C9         -9.1474   -0.3293   54.4775 C.2     1  ZINC000543020509    0.5900
     10 O10        -9.7221    0.5735   55.0535 O.2     1  ZINC000543020509   -0.5000
     11 N11        -9.2451   -1.5922   54.9378 N.am    1  ZINC000543020509   -0.6200
     12 C12       -10.0097   -1.8643   56.0780 C.2     1  ZINC000543020509    0.3200
     13 N13       -10.1607   -1.0690   57.1112 N.2     1  ZINC000543020509   -0.3100
     14 N14       -10.9983   -1.7063   58.0357 N.pl3   1  ZINC000543020509   -0.3300
     15 C15       -11.4047   -1.1903   59.2687 C.ar    1  ZINC000543020509    0.2200
     16 C16       -12.6945   -0.7065   59.4302 C.ar    1  ZINC000543020509   -0.1300
     17 C17       -13.0952   -0.1966   60.6499 C.ar    1  ZINC000543020509   -0.0500
     18 C18       -12.2147   -0.1640   61.7194 C.ar    1  ZINC000543020509   -0.0600
     19 Cl19      -12.7329    0.4799   63.2461 Cl      1  ZINC000543020509   -0.0500
     20 C20       -10.9278   -0.6416   61.5764 C.ar    1  ZINC000543020509   -0.0400
     21 C21       -10.5117   -1.1646   60.3505 C.ar    1  ZINC000543020509   -0.0200
     22 C22        -9.1779   -1.6618   60.1951 C.1     1  ZINC000543020509    0.2500
     23 N23        -8.1197   -2.0563   60.0719 N.1     1  ZINC000543020509   -0.3800
     24 C24       -11.3461   -2.9148   57.5210 C.2     1  ZINC000543020509    0.0700
     25 C25       -10.7531   -3.0337   56.3118 C.2     1  ZINC000543020509   -0.2400
     26 C26        -8.3450    1.2381   52.7263 C.ar    1  ZINC000543020509   -0.1800
     27 H27        -5.7954    3.2758   50.0044 H       1  ZINC000543020509    0.0600
     28 H28        -6.8051    2.0655   49.1774 H       1  ZINC000543020509    0.0700
     29 H29        -7.2988    3.7756   49.1930 H       1  ZINC000543020509    0.0700
     30 H30        -8.1570    4.7676   51.0457 H       1  ZINC000543020509    0.0800
     31 H31        -9.3475    3.6157   51.6968 H       1  ZINC000543020509    0.0600
     32 H32        -7.8967    4.0260   52.6428 H       1  ZINC000543020509    0.0600
     33 H33        -6.2313    0.6060   50.1638 H       1  ZINC000543020509    0.1400
     34 H34        -6.3027   -1.6109   51.2288 H       1  ZINC000543020509    0.1700
     35 H35        -8.7856   -2.3126   54.4788 H       1  ZINC000543020509    0.4300
     36 H36       -13.3863   -0.7282   58.6013 H       1  ZINC000543020509    0.1500
     37 H37       -14.1004    0.1792   60.7704 H       1  ZINC000543020509    0.1500
     38 H38       -10.2448   -0.6143   62.4125 H       1  ZINC000543020509    0.1500
     39 H39       -11.9850   -3.6474   57.9917 H       1  ZINC000543020509    0.1900
     40 H40       -10.8317   -3.8804   55.6462 H       1  ZINC000543020509    0.1800
     41 H41        -8.9363    2.0223   53.1756 H       1  ZINC000543020509    0.1500
@<TRIPOS>BOND
     1     1     2    1
     2     1    27    1
     3     1    28    1
     4     1    29    1
     5     2     3    1
     6     2     4    1
     7     3    30    1
     8     3    31    1
     9     3    32    1
    10     4    26   ar
    11     4     5   ar
    12     5     6   ar
    13     5    33    1
    14     6     7   ar
    15     6    34    1
    16     7     8   ar
    17     8     9    1
    18     8    26   ar
    19     9    10    2
    20     9    11   am
    21    11    12    1
    22    11    35    1
    23    12    25    1
    24    12    13    2
    25    13    14    1
    26    14    15    1
    27    14    24    1
    28    15    21   ar
    29    15    16   ar
    30    16    17   ar
    31    16    36    1
    32    17    18   ar
    33    17    37    1
    34    18    19    1
    35    18    20   ar
    36    20    21   ar
    37    20    38    1
    38    21    22    1
    39    22    23    3
    40    24    25    2
    41    24    39    1
    42    25    40    1
    43    26    41    1
@<TRIPOS>SUBSTRUCTURE
     1 ZINC000543020509        1 TEMP              0 ****  ****    0 ROOT


##########                                Name:    ZINC001356153960
##########                DOCK_Rotatable_Bonds:                   8
##########                         Heavy_Atoms:                  24
##########                    Molecular_Weight:             334.366
##########                DOCK_Rotatable_Bonds:                   8
##########                       Formal_Charge:           0.0100003
##########                     HBond_Acceptors:                   6
##########                        HBond_Donors:                   1
##########                         Heavy_Atoms:                  24
##########                          Grid_Score:          -26.868742
##########                     Grid_vdw_energy:          -25.908962
##########                      Grid_es_energy:           -0.959779
##########           Internal_energy_repulsive:           12.051244

@<TRIPOS>MOLECULE
ZINC001356153960
 44 46 1 0 0
SMALL
USER_CHARGES


@<TRIPOS>ATOM
      1 O1         -5.5631    2.4876   48.9806 O.2     1  ZINC001356153960   -0.5200
      2 C2         -4.8391    2.5672   49.9513 C.2     1  ZINC001356153960    0.5100
      3 N3         -5.1094    1.8420   51.0548 N.am    1  ZINC001356153960   -0.7000
      4 C4         -6.2737    0.9532   51.0801 C.3     1  ZINC001356153960    0.1300
      5 C5         -6.5769    0.5510   52.5248 C.3     1  ZINC001356153960   -0.0800
      6 H6         -5.7200    0.0402   52.9639 H       1  ZINC001356153960    0.0900
      7 C7         -6.9415    1.7671   53.3443 C.2     1  ZINC001356153960   -0.1700
      8 C8         -7.9856    1.5342   54.0921 C.2     1  ZINC001356153960   -0.1600
      9 C9         -8.4915    0.1238   53.8961 C.3     1  ZINC001356153960   -0.1000
     10 C10        -7.8297   -0.3537   52.5805 C.3     1  ZINC001356153960   -0.1200
     11 C11        -3.6515    3.4739   49.9255 C.2     1  ZINC001356153960    0.5100
     12 O12        -3.7800    4.6500   50.1954 O.2     1  ZINC001356153960   -0.5100
     13 N13        -2.4376    2.9853   49.6024 N.am    1  ZINC001356153960   -0.5500
     14 C14        -2.2824    1.5655   49.2765 C.3     1  ZINC001356153960    0.1300
     15 C15        -1.4207    1.4232   48.0485 C.ar    1  ZINC001356153960   -0.1600
     16 C16        -0.0928    1.0625   48.1744 C.ar    1  ZINC001356153960   -0.0300
     17 C17         0.6973    0.9261   47.0484 C.ar    1  ZINC001356153960   -0.1700
     18 C18         0.1618    1.1619   45.7936 C.ar    1  ZINC001356153960    0.1400
     19 F19         0.9354    1.0336   44.6935 F       1  ZINC001356153960   -0.1300
     20 C20        -1.1671    1.5290   45.6666 C.ar    1  ZINC001356153960   -0.2000
     21 C21        -1.9587    1.6597   46.7943 C.ar    1  ZINC001356153960    0.1500
     22 F22        -3.2554    2.0181   46.6718 F       1  ZINC001356153960   -0.1200
     23 C23        -1.2733    3.8742   49.5769 C.3     1  ZINC001356153960    0.0700
     24 C24        -0.0833    3.5052   50.4651 C.3     1  ZINC001356153960   -0.1900
     25 C25        -0.9790    4.6893   50.8379 C.3     1  ZINC001356153960   -0.1800
     26 H26        -4.5331    1.9086   51.8321 H       1  ZINC001356153960    0.4100
     27 H27        -7.1353    1.4709   50.6585 H       1  ZINC001356153960    0.0800
     28 H28        -6.0623    0.0606   50.4912 H       1  ZINC001356153960    0.0800
     29 H29        -6.4084    2.7058   53.3147 H       1  ZINC001356153960    0.1200
     30 H30        -8.4299    2.2548   54.7626 H       1  ZINC001356153960    0.1300
     31 H31        -8.1813   -0.5097   54.7270 H       1  ZINC001356153960    0.0800
     32 H32        -9.5774    0.1197   53.8012 H       1  ZINC001356153960    0.0700
     33 H33        -8.4820   -0.1718   51.7263 H       1  ZINC001356153960    0.0800
     34 H34        -7.5504   -1.4057   52.6403 H       1  ZINC001356153960    0.0800
     35 H35        -1.8107    1.0502   50.1131 H       1  ZINC001356153960    0.0900
     36 H36        -3.2621    1.1274   49.0857 H       1  ZINC001356153960    0.1400
     37 H37         0.3271    0.8830   49.1531 H       1  ZINC001356153960    0.1600
     38 H38         1.7340    0.6401   47.1477 H       1  ZINC001356153960    0.1400
     39 H39        -1.5857    1.7134   44.6883 H       1  ZINC001356153960    0.1500
     40 H40        -1.0581    4.3397   48.6151 H       1  ZINC001356153960    0.1400
     41 H41        -0.1667    2.6012   51.0684 H       1  ZINC001356153960    0.1400
     42 H42         0.9146    3.7284   50.0877 H       1  ZINC001356153960    0.0900
     43 H43        -0.5699    5.6909   50.7055 H       1  ZINC001356153960    0.1000
     44 H44        -1.6517    4.5642   51.6864 H       1  ZINC001356153960    0.0900
@<TRIPOS>BOND
     1     1     2    2
     2     2     3   am
     3     2    11    1
     4     3     4    1
     5     3    26    1
     6     4     5    1
     7     4    27    1
     8     4    28    1
     9     5     6    1
    10     5    10    1
    11     5     7    1
    12     7     8    2
    13     7    29    1
    14     8     9    1
    15     8    30    1
    16     9    10    1
    17     9    31    1
    18     9    32    1
    19    10    33    1
    20    10    34    1
    21    11    12    2
    22    11    13   am
    23    13    14    1
    24    13    23    1
    25    14    15    1
    26    14    35    1
    27    14    36    1
    28    15    21   ar
    29    15    16   ar
    30    16    17   ar
    31    16    37    1
    32    17    18   ar
    33    17    38    1
    34    18    19    1
    35    18    20   ar
    36    20    21   ar
    37    20    39    1
    38    21    22    1
    39    23    25    1
    40    23    24    1
    41    23    40    1
    42    24    25    1
    43    24    41    1
    44    24    42    1
    45    25    43    1
    46    25    44    1
@<TRIPOS>SUBSTRUCTURE
     1 ZINC001356153960        1 TEMP              0 ****  ****    0 ROOT


##########                                Name:    ZINC000426607143
##########                DOCK_Rotatable_Bonds:                   3
##########                         Heavy_Atoms:                  25
##########                    Molecular_Weight:             419.302
##########                DOCK_Rotatable_Bonds:                   3
##########                       Formal_Charge:         1.49012e-07
##########                     HBond_Acceptors:                   7
##########                        HBond_Donors:                   0
##########                         Heavy_Atoms:                  25
##########                          Grid_Score:          -26.810955
##########                     Grid_vdw_energy:          -26.584764
##########                      Grid_es_energy:           -0.226191
##########           Internal_energy_repulsive:           29.259851

@<TRIPOS>MOLECULE
ZINC000426607143
 40 43 1 0 0
SMALL
USER_CHARGES


@<TRIPOS>ATOM
      1 C1          1.8323    0.2851   51.5902 C.3     1  ZINC000426607143   -0.0900
      2 C2          1.9321    1.5987   52.3221 C.2     1  ZINC000426607143    0.1600
      3 N3          3.0010    1.9315   52.9786 N.2     1  ZINC000426607143   -0.4600
      4 S4          2.7278    3.4615   53.6558 S.3     1  ZINC000426607143    0.2900
      5 C5          1.1346    3.6481   53.0343 C.2     1  ZINC000426607143   -0.1300
      6 C6          0.2103    4.8221   53.2309 C.3     1  ZINC000426607143   -0.0800
      7 C7          0.8868    2.5127   52.3216 C.2     1  ZINC000426607143   -0.1200
      8 C8         -0.3938    2.2702   51.6138 C.2     1  ZINC000426607143    0.2500
      9 N9         -0.7079    1.2075   50.9184 N.2     1  ZINC000426607143   -0.3700
     10 O10        -1.8286    1.3203   50.4686 O.3     1  ZINC000426607143    0.0900
     11 C11        -2.3552    2.4917   50.8390 C.2     1  ZINC000426607143    0.2000
     12 C12        -3.7260    3.0084   50.4858 C.3     1  ZINC000426607143   -0.0300
     13 H13        -3.7315    4.0983   50.4781 H       1  ZINC000426607143    0.1600
     14 C14        -4.1760    2.4553   49.1137 C.3     1  ZINC000426607143   -0.1200
     15 C15        -5.6886    2.2398   49.3416 C.3     1  ZINC000426607143    0.1000
     16 N16        -5.8434    2.0495   50.7887 N.am    1  ZINC000426607143   -0.5800
     17 C17        -6.9754    1.4936   51.3954 C.ar    1  ZINC000426607143    0.1700
     18 C18        -7.0837    0.1170   51.5368 C.ar    1  ZINC000426607143   -0.1000
     19 C19        -8.2024   -0.4288   52.1362 C.ar    1  ZINC000426607143   -0.1000
     20 C20        -9.2142    0.3943   52.5947 C.ar    1  ZINC000426607143   -0.1000
     21 C21        -9.1101    1.7663   52.4557 C.ar    1  ZINC000426607143   -0.0900
     22 C22        -7.9912    2.3189   51.8628 C.ar    1  ZINC000426607143   -0.0800
     23 Br23       -7.8495    4.1951   51.6729 Br      1  ZINC000426607143   -0.0400
     24 C24        -4.7576    2.4805   51.4584 C.2     1  ZINC000426607143    0.5300
     25 O25        -4.6259    2.4463   52.6636 O.2     1  ZINC000426607143   -0.4900
     26 N26        -1.4581    3.1038   51.5711 N.2     1  ZINC000426607143   -0.4600
     27 H27         2.1945    0.4095   50.5696 H       1  ZINC000426607143    0.0900
     28 H28         2.4379   -0.4630   52.1019 H       1  ZINC000426607143    0.0800
     29 H29         0.7926   -0.0413   51.5694 H       1  ZINC000426607143    0.1100
     30 H30         0.7037    5.5738   53.8469 H       1  ZINC000426607143    0.0800
     31 H31        -0.0399    5.2536   52.2618 H       1  ZINC000426607143    0.0900
     32 H32        -0.7013    4.4877   53.7261 H       1  ZINC000426607143    0.0900
     33 H33        -4.0006    3.1844   48.3227 H       1  ZINC000426607143    0.1100
     34 H34        -3.6769    1.5123   48.8907 H       1  ZINC000426607143    0.1000
     35 H35        -6.2479    3.1163   49.0145 H       1  ZINC000426607143    0.0900
     36 H36        -6.0282    1.3532   48.8061 H       1  ZINC000426607143    0.0900
     37 H37        -6.2942   -0.5269   51.1784 H       1  ZINC000426607143    0.1400
     38 H38        -8.2869   -1.4998   52.2464 H       1  ZINC000426607143    0.1400
     39 H39       -10.0880   -0.0352   53.0622 H       1  ZINC000426607143    0.1400
     40 H40        -9.9023    2.4065   52.8149 H       1  ZINC000426607143    0.1400
@<TRIPOS>BOND
     1     1     2    1
     2     1    27    1
     3     1    28    1
     4     1    29    1
     5     2     7    1
     6     2     3    2
     7     3     4    1
     8     4     5    1
     9     5     6    1
    10     5     7    2
    11     6    30    1
    12     6    31    1
    13     6    32    1
    14     7     8    1
    15     8    26    1
    16     8     9    2
    17     9    10    1
    18    10    11    1
    19    11    12    1
    20    11    26    2
    21    12    13    1
    22    12    24    1
    23    12    14    1
    24    14    15    1
    25    14    33    1
    26    14    34    1
    27    15    16    1
    28    15    35    1
    29    15    36    1
    30    16    17    1
    31    16    24   am
    32    17    22   ar
    33    17    18   ar
    34    18    19   ar
    35    18    37    1
    36    19    20   ar
    37    19    38    1
    38    20    21   ar
    39    20    39    1
    40    21    22   ar
    41    21    40    1
    42    22    23    1
    43    24    25    2
@<TRIPOS>SUBSTRUCTURE
     1 ZINC000426607143        1 TEMP              0 ****  ****    0 ROOT


##########                                Name:    ZINC001179023006
##########                DOCK_Rotatable_Bonds:                   3
##########                         Heavy_Atoms:                  25
##########                    Molecular_Weight:             340.465
##########                DOCK_Rotatable_Bonds:                   3
##########                       Formal_Charge:          -0.0100005
##########                     HBond_Acceptors:                   4
##########                        HBond_Donors:                   1
##########                         Heavy_Atoms:                  25
##########                          Grid_Score:          -26.807959
##########                     Grid_vdw_energy:          -26.813269
##########                      Grid_es_energy:            0.005310
##########           Internal_energy_repulsive:           29.722643

@<TRIPOS>MOLECULE
ZINC001179023006
 53 56 1 0 0
SMALL
USER_CHARGES


@<TRIPOS>ATOM
      1 C1         -6.8715    0.1751   52.2706 C.3     1  ZINC001179023006   -0.1500
      2 C2         -6.2236    1.3730   52.9677 C.3     1  ZINC001179023006   -0.1100
      3 C3         -6.7349    2.6689   52.3352 C.3     1  ZINC001179023006   -0.1100
      4 C4         -6.3949    2.7795   50.8713 C.2     1  ZINC001179023006    0.5400
      5 O5         -7.2692    2.6804   50.0366 O.2     1  ZINC001179023006   -0.5400
      6 N6         -5.1194    2.9888   50.4896 N.am    1  ZINC001179023006   -0.5900
      7 C7         -4.7708    3.0931   49.0662 C.3     1  ZINC001179023006    0.1000
      8 C8         -3.6491    2.1053   48.7539 C.3     1  ZINC001179023006   -0.1200
      9 C9         -2.4684    2.3622   49.7016 C.3     1  ZINC001179023006   -0.0500
     10 C10        -2.9363    2.1174   51.1438 C.3     1  ZINC001179023006   -0.1100
     11 C11        -4.0488    3.1114   51.4882 C.3     1  ZINC001179023006    0.0900
     12 C12        -1.3470    1.3893   49.3732 C.3     1  ZINC001179023006   -0.0800
     13 C13        -0.9221    1.4980   47.9407 C.ar    1  ZINC001179023006   -0.0700
     14 C14        -1.2738    0.4770   47.0635 C.ar    1  ZINC001179023006   -0.1100
     15 C15        -0.9514    0.5774   45.7245 C.ar    1  ZINC001179023006   -0.1100
     16 C16        -0.2786    1.6883   45.2514 C.ar    1  ZINC001179023006   -0.1200
     17 C17         0.0824    2.6954   46.1287 C.ar    1  ZINC001179023006   -0.1000
     18 C18        -0.2381    2.5791   47.4696 C.ar    1  ZINC001179023006   -0.1100
     19 C19         0.1779    3.6599   48.4347 C.3     1  ZINC001179023006    0.1400
     20 N20        -0.9673    4.3207   49.0205 N.am    1  ZINC001179023006   -0.7000
     21 C21        -2.0303    3.7862   49.5642 C.2     1  ZINC001179023006    0.5200
     22 O22        -2.8006    4.5909   50.0435 O.2     1  ZINC001179023006   -0.5500
     23 C23        -6.3871    3.9289   53.1454 C.3     1  ZINC001179023006   -0.1200
     24 C24        -7.7983    4.4406   52.8037 C.3     1  ZINC001179023006   -0.1400
     25 C25        -8.2106    2.9671   52.6491 C.3     1  ZINC001179023006   -0.1300
     26 H26        -6.5368   -0.7468   52.7462 H       1  ZINC001179023006    0.0600
     27 H27        -7.9560    0.2516   52.3495 H       1  ZINC001179023006    0.0500
     28 H28        -6.5834    0.1669   51.2193 H       1  ZINC001179023006    0.0600
     29 H29        -5.1408    1.3166   52.8556 H       1  ZINC001179023006    0.0700
     30 H30        -6.4805    1.3596   54.0269 H       1  ZINC001179023006    0.0700
     31 H31        -5.6438    2.8564   48.4580 H       1  ZINC001179023006    0.0900
     32 H32        -4.4335    4.1059   48.8459 H       1  ZINC001179023006    0.0800
     33 H33        -3.3232    2.2370   47.7221 H       1  ZINC001179023006    0.0800
     34 H34        -4.0132    1.0874   48.8935 H       1  ZINC001179023006    0.0800
     35 H35        -2.0986    2.2574   51.8271 H       1  ZINC001179023006    0.0800
     36 H36        -3.3156    1.0998   51.2366 H       1  ZINC001179023006    0.0800
     37 H37        -3.6499    4.1257   51.4735 H       1  ZINC001179023006    0.1200
     38 H38        -4.4454    2.8871   52.4784 H       1  ZINC001179023006    0.0800
     39 H39        -0.4920    1.6023   50.0148 H       1  ZINC001179023006    0.0800
     40 H40        -1.6901    0.3728   49.5661 H       1  ZINC001179023006    0.0900
     41 H41        -1.7989   -0.3930   47.4293 H       1  ZINC001179023006    0.1200
     42 H42        -1.2258   -0.2154   45.0443 H       1  ZINC001179023006    0.1200
     43 H43        -0.0362    1.7697   44.2022 H       1  ZINC001179023006    0.1300
     44 H44         0.6109    3.5660   45.7694 H       1  ZINC001179023006    0.1300
     45 H45         0.7814    4.3970   47.9050 H       1  ZINC001179023006    0.0900
     46 H46         0.7775    3.2159   49.2293 H       1  ZINC001179023006    0.0800
     47 H47        -0.9442    5.2903   49.0083 H       1  ZINC001179023006    0.4000
     48 H48        -6.2375    3.7373   54.2079 H       1  ZINC001179023006    0.0900
     49 H49        -5.5873    4.5241   52.7048 H       1  ZINC001179023006    0.0800
     50 H50        -7.8427    5.0063   51.8730 H       1  ZINC001179023006    0.0800
     51 H51        -8.2936    4.9480   53.6315 H       1  ZINC001179023006    0.0700
     52 H52        -8.8808    2.7872   51.8085 H       1  ZINC001179023006    0.0700
     53 H53        -8.5605    2.5121   53.5758 H       1  ZINC001179023006    0.0900
@<TRIPOS>BOND
     1     1     2    1
     2     1    26    1
     3     1    27    1
     4     1    28    1
     5     2     3    1
     6     2    29    1
     7     2    30    1
     8     3    25    1
     9     3     4    1
    10     3    23    1
    11     4     5    2
    12     4     6   am
    13     6    11    1
    14     6     7    1
    15     7     8    1
    16     7    31    1
    17     7    32    1
    18     8     9    1
    19     8    33    1
    20     8    34    1
    21     9    21    1
    22     9    10    1
    23     9    12    1
    24    10    11    1
    25    10    35    1
    26    10    36    1
    27    11    37    1
    28    11    38    1
    29    12    13    1
    30    12    39    1
    31    12    40    1
    32    13    18   ar
    33    13    14   ar
    34    14    15   ar
    35    14    41    1
    36    15    16   ar
    37    15    42    1
    38    16    17   ar
    39    16    43    1
    40    17    18   ar
    41    17    44    1
    42    18    19    1
    43    19    20    1
    44    19    45    1
    45    19    46    1
    46    20    21   am
    47    20    47    1
    48    21    22    2
    49    23    24    1
    50    23    48    1
    51    23    49    1
    52    24    25    1
    53    24    50    1
    54    24    51    1
    55    25    52    1
    56    25    53    1
@<TRIPOS>SUBSTRUCTURE
     1 ZINC001179023006        1 TEMP              0 ****  ****    0 ROOT


##########                                Name:    ZINC000371438955
##########                DOCK_Rotatable_Bonds:                   4
##########                         Heavy_Atoms:                  25
##########                    Molecular_Weight:             387.499
##########                DOCK_Rotatable_Bonds:                   4
##########                       Formal_Charge:          -0.0299995
##########                     HBond_Acceptors:                   9
##########                        HBond_Donors:                   1
##########                         Heavy_Atoms:                  25
##########                          Grid_Score:          -26.779165
##########                     Grid_vdw_energy:          -25.809500
##########                      Grid_es_energy:           -0.969666
##########           Internal_energy_repulsive:           22.623442

@<TRIPOS>MOLECULE
ZINC000371438955
 47 49 1 0 0
SMALL
USER_CHARGES


@<TRIPOS>ATOM
      1 C1         -1.6759    4.6094   52.1520 C.3     1  ZINC000371438955   -0.6800
      2 S2         -0.5067    4.7209   50.7696 S.o2    1  ZINC000371438955    2.6000
      3 O3         -1.1247    5.3245   49.6413 O.2     1  ZINC000371438955   -0.9500
      4 O4          0.7666    5.1552   51.2272 O.2     1  ZINC000371438955   -0.9500
      5 N5         -0.2609    3.1495   50.3085 N.am    1  ZINC000371438955   -0.9900
      6 C6          0.6299    2.8775   49.2172 C.3     1  ZINC000371438955    0.1300
      7 C7         -0.1758    2.9778   47.9111 C.3     1  ZINC000371438955   -0.1700
      8 C8         -0.9859    1.7727   47.6738 C.3     1  ZINC000371438955    0.1400
      9 N9         -1.9180    1.5476   48.8040 N.am    1  ZINC000371438955   -0.6200
     10 C10        -3.2200    1.8724   48.6778 C.2     1  ZINC000371438955    0.7100
     11 O11        -3.6294    2.3500   47.6374 O.2     1  ZINC000371438955   -0.5800
     12 N12        -4.0681    1.6680   49.7052 N.am    1  ZINC000371438955   -0.7400
     13 C13        -5.4833    2.0211   49.5681 C.3     1  ZINC000371438955    0.2000
     14 H14        -5.8151    1.7465   48.5668 H       1  ZINC000371438955    0.1100
     15 C15        -5.6275    3.5240   49.7330 C.3     1  ZINC000371438955   -0.1300
     16 C16        -7.1029    3.9068   49.5502 C.3     1  ZINC000371438955   -0.1100
     17 S17        -7.9957    3.3400   51.0266 S.3     1  ZINC000371438955   -0.1000
     18 C18        -7.3880    1.6968   51.2378 C.ar    1  ZINC000371438955   -0.1100
     19 C19        -8.0741    0.8585   52.1212 C.ar    1  ZINC000371438955    0.1100
     20 F20        -9.1678    1.3182   52.7674 F       1  ZINC000371438955   -0.1300
     21 C21        -7.6447   -0.4342   52.3385 C.ar    1  ZINC000371438955   -0.1300
     22 C22        -6.5226   -0.8993   51.6766 C.ar    1  ZINC000371438955   -0.1000
     23 C23        -5.8465   -0.0756   50.8033 C.ar    1  ZINC000371438955   -0.1000
     24 C24        -6.2743    1.2317   50.5695 C.ar    1  ZINC000371438955   -0.0800
     25 C25        -1.4351    0.9832   50.0332 C.3     1  ZINC000371438955    0.1000
     26 C26        -0.9663    2.0643   51.0436 C.3     1  ZINC000371438955    0.0900
     27 H27        -2.5969    4.1363   51.8116 H       1  ZINC000371438955    0.1300
     28 H28        -1.2363    4.0145   52.9527 H       1  ZINC000371438955    0.1300
     29 H29        -1.8969    5.6104   52.5226 H       1  ZINC000371438955    0.1300
     30 H30         1.4374    3.6097   49.2094 H       1  ZINC000371438955    0.0800
     31 H31         1.0425    1.8739   49.3196 H       1  ZINC000371438955    0.0800
     32 H32        -0.8354    3.8438   47.9664 H       1  ZINC000371438955    0.0800
     33 H33         0.5141    3.1115   47.0778 H       1  ZINC000371438955    0.0900
     34 H34        -1.5576    1.8977   46.7542 H       1  ZINC000371438955    0.0900
     35 H35        -0.3277    0.9099   47.5717 H       1  ZINC000371438955    0.0700
     36 H36        -3.7414    1.2871   50.5352 H       1  ZINC000371438955    0.4000
     37 H37        -5.2959    3.8151   50.7297 H       1  ZINC000371438955    0.0900
     38 H38        -5.0228    4.0330   48.9825 H       1  ZINC000371438955    0.1000
     39 H39        -7.1961    4.9884   49.4531 H       1  ZINC000371438955    0.1200
     40 H40        -7.5056    3.4179   48.6630 H       1  ZINC000371438955    0.1000
     41 H41        -8.1801   -1.0781   53.0204 H       1  ZINC000371438955    0.1400
     42 H42        -6.1761   -1.9083   51.8448 H       1  ZINC000371438955    0.1300
     43 H43        -4.9705   -0.4476   50.2928 H       1  ZINC000371438955    0.1400
     44 H44        -2.2326    0.3964   50.4890 H       1  ZINC000371438955    0.0800
     45 H45        -0.5962    0.3233   49.8126 H       1  ZINC000371438955    0.0900
     46 H46        -0.2925    1.6131   51.7720 H       1  ZINC000371438955    0.0800
     47 H47        -1.8323    2.4806   51.5583 H       1  ZINC000371438955    0.1000
@<TRIPOS>BOND
     1     1     2    1
     2     1    27    1
     3     1    28    1
     4     1    29    1
     5     2     3    2
     6     2     4    2
     7     2     5   am
     8     5    26    1
     9     5     6    1
    10     6     7    1
    11     6    30    1
    12     6    31    1
    13     7     8    1
    14     7    32    1
    15     7    33    1
    16     8     9    1
    17     8    34    1
    18     8    35    1
    19     9    10   am
    20     9    25    1
    21    10    11    2
    22    10    12   am
    23    12    13    1
    24    12    36    1
    25    13    14    1
    26    13    24    1
    27    13    15    1
    28    15    16    1
    29    15    37    1
    30    15    38    1
    31    16    17    1
    32    16    39    1
    33    16    40    1
    34    17    18    1
    35    18    24   ar
    36    18    19   ar
    37    19    20    1
    38    19    21   ar
    39    21    22   ar
    40    21    41    1
    41    22    23   ar
    42    22    42    1
    43    23    24   ar
    44    23    43    1
    45    25    26    1
    46    25    44    1
    47    25    45    1
    48    26    46    1
    49    26    47    1
@<TRIPOS>SUBSTRUCTURE
     1 ZINC000371438955        1 TEMP              0 ****  ****    0 ROOT


##########                                Name:    ZINC000928803822
##########                DOCK_Rotatable_Bonds:                   7
##########                         Heavy_Atoms:                  21
##########                    Molecular_Weight:             364.165
##########                DOCK_Rotatable_Bonds:                   7
##########                       Formal_Charge:         -0.00999978
##########                     HBond_Acceptors:                   7
##########                        HBond_Donors:                   1
##########                         Heavy_Atoms:                  21
##########                          Grid_Score:          -26.733854
##########                     Grid_vdw_energy:          -25.621166
##########                      Grid_es_energy:           -1.112688
##########           Internal_energy_repulsive:            9.672208

@<TRIPOS>MOLECULE
ZINC000928803822
 34 34 1 0 0
SMALL
USER_CHARGES


@<TRIPOS>ATOM
      1 C1        -14.4648   -0.2152   60.5369 C.3     1  ZINC000928803822    0.0900
      2 N2        -13.9320   -1.5011   60.9938 N.pl3   1  ZINC000928803822   -0.6300
      3 C3        -14.8145   -2.4670   61.6530 C.3     1  ZINC000928803822    0.0900
      4 C4        -12.5824   -1.8064   60.8008 C.ar    1  ZINC000928803822    0.2200
      5 C5        -12.2198   -2.8498   59.9576 C.ar    1  ZINC000928803822   -0.1500
      6 C6        -10.8848   -3.1559   59.7633 C.ar    1  ZINC000928803822   -0.0500
      7 Br7       -10.4014   -4.5772   58.6135 Br      1  ZINC000928803822   -0.0400
      8 C8         -9.9042   -2.4265   60.4060 C.ar    1  ZINC000928803822   -0.1200
      9 C9        -10.2588   -1.3765   61.2548 C.ar    1  ZINC000928803822   -0.0800
     10 C10        -9.2107   -0.5939   61.9442 C.2     1  ZINC000928803822    0.5700
     11 O11        -8.1611   -0.3540   61.3800 O.2     1  ZINC000928803822   -0.5100
     12 N12        -9.4191   -0.1463   63.1984 N.am    1  ZINC000928803822   -0.7200
     13 C13        -8.3801    0.6276   63.8821 C.3     1  ZINC000928803822    0.1100
     14 H14        -7.7497    1.1221   63.1429 H       1  ZINC000928803822    0.1400
     15 C15        -7.5246   -0.3102   64.7363 C.3     1  ZINC000928803822   -0.0300
     16 C16        -8.3826   -1.0099   65.7063 C.1     1  ZINC000928803822    0.2000
     17 N17        -9.0447   -1.5500   66.4549 N.1     1  ZINC000928803822   -0.4000
     18 C18        -9.0350    1.6796   64.7794 C.3     1  ZINC000928803822    0.4400
     19 F19        -9.5784    2.6959   63.9863 F       1  ZINC000928803822   -0.1800
     20 F20       -10.0512    1.0825   65.5331 F       1  ZINC000928803822   -0.1700
     21 F21        -8.0743    2.2225   65.6393 F       1  ZINC000928803822   -0.1600
     22 C22       -11.6045   -1.0645   61.4462 C.ar    1  ZINC000928803822   -0.1200
     23 H23       -14.3721    0.5209   61.3355 H       1  ZINC000928803822    0.0600
     24 H24       -13.9033    0.1217   59.6654 H       1  ZINC000928803822    0.0700
     25 H25       -15.5151   -0.3313   60.2698 H       1  ZINC000928803822    0.0700
     26 H26       -15.2581   -3.1236   60.9046 H       1  ZINC000928803822    0.0500
     27 H27       -14.2378   -3.0612   62.3618 H       1  ZINC000928803822    0.0700
     28 H28       -15.6042   -1.9347   62.1832 H       1  ZINC000928803822    0.0700
     29 H29       -12.9826   -3.4239   59.4527 H       1  ZINC000928803822    0.1400
     30 H30        -8.8630   -2.6686   60.2521 H       1  ZINC000928803822    0.1300
     31 H31       -10.2572   -0.3367   63.6482 H       1  ZINC000928803822    0.4100
     32 H32        -7.0329   -1.0402   64.0932 H       1  ZINC000928803822    0.1400
     33 H33        -6.7714    0.2699   65.2695 H       1  ZINC000928803822    0.1300
     34 H34       -11.8845   -0.2532   62.1018 H       1  ZINC000928803822    0.1500
@<TRIPOS>BOND
     1     1     2    1
     2     1    23    1
     3     1    24    1
     4     1    25    1
     5     2     3    1
     6     2     4    1
     7     3    26    1
     8     3    27    1
     9     3    28    1
    10     4    22   ar
    11     4     5   ar
    12     5     6   ar
    13     5    29    1
    14     6     7    1
    15     6     8   ar
    16     8     9   ar
    17     8    30    1
    18     9    10    1
    19     9    22   ar
    20    10    11    2
    21    10    12   am
    22    12    13    1
    23    12    31    1
    24    13    14    1
    25    13    15    1
    26    13    18    1
    27    15    16    1
    28    15    32    1
    29    15    33    1
    30    16    17    3
    31    18    19    1
    32    18    20    1
    33    18    21    1
    34    22    34    1
@<TRIPOS>SUBSTRUCTURE
     1 ZINC000928803822        1 TEMP              0 ****  ****    0 ROOT


##########                                Name:    ZINC000444542200
##########                DOCK_Rotatable_Bonds:                   8
##########                         Heavy_Atoms:                  28
##########                    Molecular_Weight:             404.337
##########                DOCK_Rotatable_Bonds:                   8
##########                       Formal_Charge:           0.0200001
##########                     HBond_Acceptors:                  10
##########                        HBond_Donors:                   1
##########                         Heavy_Atoms:                  28
##########                          Grid_Score:          -26.725908
##########                     Grid_vdw_energy:          -26.270092
##########                      Grid_es_energy:           -0.455817
##########           Internal_energy_repulsive:           18.943436

@<TRIPOS>MOLECULE
ZINC000444542200
 45 46 1 0 0
SMALL
USER_CHARGES


@<TRIPOS>ATOM
      1 C1         -7.3712    0.0239   65.6922 C.3     1  ZINC000444542200    0.0300
      2 O2         -7.5812   -0.7022   64.4795 O.3     1  ZINC000444542200   -0.3100
      3 C3         -8.5764   -0.2657   63.6634 C.ar    1  ZINC000444542200    0.1800
      4 C4         -8.7040   -0.7879   62.3854 C.ar    1  ZINC000444542200   -0.1700
      5 C5         -9.7208   -0.3422   61.5522 C.ar    1  ZINC000444542200    0.2300
      6 N6         -9.8505   -0.8693   60.2624 N.am    1  ZINC000444542200   -0.5800
      7 C7         -8.9451   -0.4307   59.1974 C.3     1  ZINC000444542200    0.0700
      8 C8        -10.8081   -1.7805   60.0000 C.2     1  ZINC000444542200    0.7100
      9 O9        -11.5594   -2.1448   60.8840 O.2     1  ZINC000444542200   -0.5500
     10 N10       -10.9330   -2.2882   58.7578 N.am    1  ZINC000444542200   -0.7300
     11 C11       -11.9752   -3.2775   58.4721 C.3     1  ZINC000444542200    0.1700
     12 H12       -12.1258   -3.9097   59.3472 H       1  ZINC000444542200    0.1500
     13 C13       -13.2622   -2.5687   58.1370 C.ar    1  ZINC000444542200   -0.1300
     14 C14       -13.2481   -1.4704   57.2980 C.ar    1  ZINC000444542200   -0.0800
     15 C15       -14.4279   -0.8191   56.9896 C.ar    1  ZINC000444542200   -0.0900
     16 C16       -15.6241   -1.2648   57.5195 C.ar    1  ZINC000444542200   -0.1100
     17 C17       -15.6416   -2.3644   58.3600 C.ar    1  ZINC000444542200    0.0800
     18 F18       -16.8104   -2.8007   58.8784 F       1  ZINC000444542200   -0.1200
     19 C19       -14.4591   -3.0211   58.6648 C.ar    1  ZINC000444542200    0.1000
     20 F20       -14.4737   -4.0946   59.4849 F       1  ZINC000444542200   -0.1100
     21 C21       -11.5455   -4.1427   57.2857 C.3     1  ZINC000444542200    0.4400
     22 F22       -10.6682   -3.4171   56.4727 F       1  ZINC000444542200   -0.1600
     23 F23       -10.9022   -5.2926   57.7560 F       1  ZINC000444542200   -0.1700
     24 F24       -12.6732   -4.5098   56.5435 F       1  ZINC000444542200   -0.1800
     25 C25       -10.6092    0.6262   61.9992 C.ar    1  ZINC000444542200   -0.1900
     26 C26       -10.4804    1.1476   63.2774 C.ar    1  ZINC000444542200    0.1800
     27 O27       -11.3501    2.0957   63.7151 O.3     1  ZINC000444542200   -0.3100
     28 C28       -11.1645    2.5813   65.0461 C.3     1  ZINC000444542200    0.0300
     29 C29        -9.4676    0.6981   64.1112 C.ar    1  ZINC000444542200   -0.2900
     30 H30        -7.1245    1.0594   65.4575 H       1  ZINC000444542200    0.0600
     31 H31        -8.2787   -0.0057   66.2953 H       1  ZINC000444542200    0.0600
     32 H32        -6.5501   -0.4280   66.2488 H       1  ZINC000444542200    0.1000
     33 H33        -8.0123   -1.5411   62.0383 H       1  ZINC000444542200    0.1300
     34 H34        -8.0681   -1.0777   59.1767 H       1  ZINC000444542200    0.0700
     35 H35        -9.4596   -0.4850   58.2380 H       1  ZINC000444542200    0.0700
     36 H36        -8.6342    0.5970   59.3853 H       1  ZINC000444542200    0.0900
     37 H37       -10.3329   -1.9987   58.0529 H       1  ZINC000444542200    0.4100
     38 H38       -12.3144   -1.1205   56.8832 H       1  ZINC000444542200    0.1400
     39 H39       -14.4149    0.0391   56.3341 H       1  ZINC000444542200    0.1500
     40 H40       -16.5450   -0.7550   57.2782 H       1  ZINC000444542200    0.1500
     41 H41       -11.4003    0.9737   61.3512 H       1  ZINC000444542200    0.1400
     42 H42       -10.1745    3.0287   65.1349 H       1  ZINC000444542200    0.0600
     43 H43       -11.9235    3.3316   65.2683 H       1  ZINC000444542200    0.1000
     44 H44       -11.2541    1.7543   65.7504 H       1  ZINC000444542200    0.0600
     45 H45        -9.3677    1.1046   65.1068 H       1  ZINC000444542200    0.1400
@<TRIPOS>BOND
     1     1     2    1
     2     1    30    1
     3     1    31    1
     4     1    32    1
     5     2     3    1
     6     3    29   ar
     7     3     4   ar
     8     4     5   ar
     9     4    33    1
    10     5     6    1
    11     5    25   ar
    12     6     7    1
    13     6     8   am
    14     7    34    1
    15     7    35    1
    16     7    36    1
    17     8     9    2
    18     8    10   am
    19    10    11    1
    20    10    37    1
    21    11    12    1
    22    11    13    1
    23    11    21    1
    24    13    19   ar
    25    13    14   ar
    26    14    15   ar
    27    14    38    1
    28    15    16   ar
    29    15    39    1
    30    16    17   ar
    31    16    40    1
    32    17    18    1
    33    17    19   ar
    34    19    20    1
    35    21    22    1
    36    21    23    1
    37    21    24    1
    38    25    26   ar
    39    25    41    1
    40    26    27    1
    41    26    29   ar
    42    27    28    1
    43    28    42    1
    44    28    43    1
    45    28    44    1
    46    29    45    1
@<TRIPOS>SUBSTRUCTURE
     1 ZINC000444542200        1 TEMP              0 ****  ****    0 ROOT


##########                                Name:    ZINC000176150038
##########                DOCK_Rotatable_Bonds:                   4
##########                         Heavy_Atoms:                  23
##########                    Molecular_Weight:             333.712
##########                DOCK_Rotatable_Bonds:                   4
##########                       Formal_Charge:        -2.23517e-07
##########                     HBond_Acceptors:                  10
##########                        HBond_Donors:                   1
##########                         Heavy_Atoms:                  23
##########                          Grid_Score:          -26.710619
##########                     Grid_vdw_energy:          -26.216274
##########                      Grid_es_energy:           -0.494344
##########           Internal_energy_repulsive:           11.102084

@<TRIPOS>MOLECULE
ZINC000176150038
 32 34 1 0 0
SMALL
USER_CHARGES


@<TRIPOS>ATOM
      1 C1        -12.5053   -4.8538   57.2359 C.3     1  ZINC000176150038   -0.0900
      2 C2        -13.4958   -4.2812   58.2169 C.2     1  ZINC000176150038    0.2600
      3 N3        -14.7243   -4.6875   58.4044 N.2     1  ZINC000176150038   -0.3300
      4 N4        -15.2989   -3.9867   59.3143 N.2     1  ZINC000176150038   -0.0300
      5 N5        -14.4871   -3.0932   59.7674 N.2     1  ZINC000176150038   -0.0700
      6 N6        -13.2775   -3.2570   59.0697 N.pl3   1  ZINC000176150038   -0.3300
      7 C7        -12.0987   -2.5111   59.2212 C.ar    1  ZINC000176150038    0.1400
      8 C8        -11.4841   -2.4287   60.4631 C.ar    1  ZINC000176150038   -0.1000
      9 C9        -10.3227   -1.6948   60.6143 C.ar    1  ZINC000176150038   -0.1100
     10 C10        -9.7694   -1.0402   59.5291 C.ar    1  ZINC000176150038    0.1000
     11 F11        -8.6338   -0.3239   59.6796 F       1  ZINC000176150038   -0.1200
     12 C12       -10.3816   -1.1196   58.2820 C.ar    1  ZINC000176150038    0.1300
     13 N13        -9.8223   -0.4575   57.1834 N.am    1  ZINC000176150038   -0.6500
     14 C14        -9.4658   -1.1548   56.0866 C.2     1  ZINC000176150038    0.5700
     15 O15        -9.6301   -2.3582   56.0515 O.2     1  ZINC000176150038   -0.4800
     16 C16        -8.8728   -0.4531   54.9220 C.ar    1  ZINC000176150038    0.1400
     17 N17        -9.3141   -0.6948   53.6895 N.ar    1  ZINC000176150038   -0.4800
     18 C18        -8.7912   -0.0742   52.6542 C.ar    1  ZINC000176150038    0.3000
     19 N19        -7.8176    0.8057   52.7861 N.ar    1  ZINC000176150038   -0.4800
     20 C20        -7.3230    1.1024   53.9754 C.ar    1  ZINC000176150038    0.1700
     21 C21        -7.8460    0.4770   55.1004 C.ar    1  ZINC000176150038   -0.1000
     22 Cl22       -7.2311    0.8328   56.6845 Cl      1  ZINC000176150038    0.0100
     23 C23       -11.5442   -1.8603   58.1284 C.ar    1  ZINC000176150038   -0.0800
     24 H24       -11.9427   -5.6558   57.7140 H       1  ZINC000176150038    0.1100
     25 H25       -13.0377   -5.2490   56.3709 H       1  ZINC000176150038    0.1100
     26 H26       -11.8191   -4.0707   56.9136 H       1  ZINC000176150038    0.0900
     27 H27       -11.9142   -2.9385   61.3125 H       1  ZINC000176150038    0.1500
     28 H28        -9.8467   -1.6320   61.5818 H       1  ZINC000176150038    0.1600
     29 H29        -9.6912    0.5031   57.2114 H       1  ZINC000176150038    0.4300
     30 H30        -9.1703   -0.2920   51.6666 H       1  ZINC000176150038    0.2200
     31 H31        -6.5257    1.8245   54.0718 H       1  ZINC000176150038    0.1900
     32 H32       -12.0215   -1.9237   57.1617 H       1  ZINC000176150038    0.1700
@<TRIPOS>BOND
     1     1     2    1
     2     1    24    1
     3     1    25    1
     4     1    26    1
     5     2     6    1
     6     2     3    2
     7     3     4    1
     8     4     5    2
     9     5     6    1
    10     6     7    1
    11     7    23   ar
    12     7     8   ar
    13     8     9   ar
    14     8    27    1
    15     9    10   ar
    16     9    28    1
    17    10    11    1
    18    10    12   ar
    19    12    13    1
    20    12    23   ar
    21    13    14   am
    22    13    29    1
    23    14    15    2
    24    14    16    1
    25    16    21   ar
    26    16    17   ar
    27    17    18   ar
    28    18    19   ar
    29    18    30    1
    30    19    20   ar
    31    20    21   ar
    32    20    31    1
    33    21    22    1
    34    23    32    1
@<TRIPOS>SUBSTRUCTURE
     1 ZINC000176150038        1 TEMP              0 ****  ****    0 ROOT


##########                                Name:    ZINC001018118384
##########                DOCK_Rotatable_Bonds:                   5
##########                         Heavy_Atoms:                  25
##########                    Molecular_Weight:             347.374
##########                DOCK_Rotatable_Bonds:                   5
##########                       Formal_Charge:           0.0299997
##########                     HBond_Acceptors:                   9
##########                        HBond_Donors:                   2
##########                         Heavy_Atoms:                  25
##########                          Grid_Score:          -26.645832
##########                     Grid_vdw_energy:          -24.027233
##########                      Grid_es_energy:           -2.618600
##########           Internal_energy_repulsive:           97.448837

@<TRIPOS>MOLECULE
ZINC001018118384
 46 48 1 0 0
SMALL
USER_CHARGES


@<TRIPOS>ATOM
      1 C1        -13.2646    2.6739   64.9395 C.3     1  ZINC001018118384   -0.0700
      2 C2        -13.1786    2.0679   63.5624 C.2     1  ZINC001018118384    0.2200
      3 N3        -12.7478    0.8703   63.2891 N.2     1  ZINC001018118384   -0.4600
      4 C4        -12.8159    0.6749   61.9474 C.2     1  ZINC001018118384   -0.0700
      5 C5        -12.4239   -0.5475   61.2244 C.2     1  ZINC001018118384    0.6100
      6 O6        -13.1018   -1.5530   61.3177 O.2     1  ZINC001018118384   -0.5400
      7 N7        -11.3141   -0.5515   60.4598 N.am    1  ZINC001018118384   -0.5900
      8 C8        -10.4817    0.6535   60.3421 C.3     1  ZINC001018118384    0.0700
      9 C9         -9.0358    0.2904   60.6946 C.3     1  ZINC001018118384    0.1300
     10 H10        -8.3912    1.1516   60.5187 H       1  ZINC001018118384    0.1100
     11 N11        -8.9592   -0.0979   62.1051 N.am    1  ZINC001018118384   -0.7000
     12 C12        -8.5351    0.7898   63.0263 C.2     1  ZINC001018118384    0.6000
     13 O13        -8.2150    1.9116   62.6868 O.2     1  ZINC001018118384   -0.4900
     14 C14        -8.4593    0.3976   64.4535 C.2     1  ZINC001018118384    0.0300
     15 C15        -8.4607   -0.8744   64.9438 C.2     1  ZINC001018118384   -0.2300
     16 C16        -8.3713   -0.7003   66.3536 C.2     1  ZINC001018118384    0.4800
     17 O17        -8.3407   -1.5750   67.2033 O.2     1  ZINC001018118384   -0.5200
     18 N18        -8.3264    0.6321   66.5548 N.am    1  ZINC001018118384   -0.4500
     19 C19        -8.2305    1.2716   67.8694 C.3     1  ZINC001018118384    0.1100
     20 O20        -8.3703    1.2281   65.5035 O.3     1  ZINC001018118384    0.0000
     21 C21        -8.5789   -0.8773   59.8171 C.3     1  ZINC001018118384   -0.1300
     22 C22        -9.4629   -2.0969   60.0873 C.3     1  ZINC001018118384   -0.1300
     23 C23       -10.9103   -1.7627   59.7328 C.3     1  ZINC001018118384    0.1400
     24 H24       -10.9917   -1.5827   58.6608 H       1  ZINC001018118384    0.0700
     25 C25       -11.8176   -2.9299   60.1271 C.3     1  ZINC001018118384   -0.1400
     26 C26       -13.3138    1.8165   61.3905 C.2     1  ZINC001018118384    0.0400
     27 N27       -13.5439    2.6812   62.4065 N.pl3   1  ZINC001018118384   -0.5600
     28 H28       -14.2378    2.4487   65.3755 H       1  ZINC001018118384    0.0900
     29 H29       -12.4790    2.2569   65.5696 H       1  ZINC001018118384    0.1000
     30 H30       -13.1391    3.7544   64.8694 H       1  ZINC001018118384    0.0800
     31 H31       -10.5253    1.0294   59.3199 H       1  ZINC001018118384    0.0800
     32 H32       -10.8449    1.4171   61.0301 H       1  ZINC001018118384    0.1500
     33 H33        -9.2136   -0.9938   62.3761 H       1  ZINC001018118384    0.4100
     34 H34        -8.5172   -1.8001   64.3904 H       1  ZINC001018118384    0.1900
     35 H35        -7.1812    1.4051   68.1327 H       1  ZINC001018118384    0.0800
     36 H36        -8.7237    2.2431   67.8377 H       1  ZINC001018118384    0.0900
     37 H37        -8.7152    0.6423   68.6158 H       1  ZINC001018118384    0.1100
     38 H38        -8.6595   -0.5957   58.7673 H       1  ZINC001018118384    0.0900
     39 H39        -7.5422   -1.1216   60.0488 H       1  ZINC001018118384    0.0800
     40 H40        -9.1222   -2.9351   59.4792 H       1  ZINC001018118384    0.0800
     41 H41        -9.4019   -2.3640   61.1423 H       1  ZINC001018118384    0.0600
     42 H42       -11.7235   -3.1179   61.1966 H       1  ZINC001018118384    0.0700
     43 H43       -12.8524   -2.6812   59.8916 H       1  ZINC001018118384    0.0800
     44 H44       -11.5233   -3.8218   59.5740 H       1  ZINC001018118384    0.0400
     45 H45       -13.4941    1.9946   60.3407 H       1  ZINC001018118384    0.1900
     46 H46       -13.8995    3.5797   62.3233 H       1  ZINC001018118384    0.4300
@<TRIPOS>BOND
     1     1     2    1
     2     1    28    1
     3     1    29    1
     4     1    30    1
     5     2    27    1
     6     2     3    2
     7     3     4    1
     8     4     5    1
     9     4    26    2
    10     5     6    2
    11     5     7   am
    12     7    23    1
    13     7     8    1
    14     8     9    1
    15     8    31    1
    16     8    32    1
    17     9    10    1
    18     9    11    1
    19     9    21    1
    20    11    12   am
    21    11    33    1
    22    12    13    2
    23    12    14    1
    24    14    20    1
    25    14    15    2
    26    15    16    1
    27    15    34    1
    28    16    17    2
    29    16    18   am
    30    18    19    1
    31    18    20    1
    32    19    35    1
    33    19    36    1
    34    19    37    1
    35    21    22    1
    36    21    38    1
    37    21    39    1
    38    22    23    1
    39    22    40    1
    40    22    41    1
    41    23    24    1
    42    23    25    1
    43    25    42    1
    44    25    43    1
    45    25    44    1
    46    26    27    1
    47    26    45    1
    48    27    46    1
@<TRIPOS>SUBSTRUCTURE
     1 ZINC001018118384        1 TEMP              0 ****  ****    0 ROOT


##########                                Name:    ZINC000550782577
##########                DOCK_Rotatable_Bonds:                   5
##########                         Heavy_Atoms:                  25
##########                    Molecular_Weight:              338.45
##########                DOCK_Rotatable_Bonds:                   5
##########                       Formal_Charge:         -0.00999954
##########                     HBond_Acceptors:                   4
##########                        HBond_Donors:                   0
##########                         Heavy_Atoms:                  25
##########                          Grid_Score:          -26.614557
##########                     Grid_vdw_energy:          -27.489653
##########                      Grid_es_energy:            0.875096
##########           Internal_energy_repulsive:           31.149433

@<TRIPOS>MOLECULE
ZINC000550782577
 51 53 1 0 0
SMALL
USER_CHARGES


@<TRIPOS>ATOM
      1 C1         -9.4689   -0.2085   56.1212 C.3     1  ZINC000550782577    0.0700
      2 N2         -9.7597   -0.2845   54.6874 N.am    1  ZINC000550782577   -0.5900
      3 C3        -10.8531   -0.9436   54.2556 C.2     1  ZINC000550782577    0.5800
      4 O4        -11.0945   -1.0067   53.0660 O.2     1  ZINC000550782577   -0.5400
      5 C5        -11.7597   -1.5902   55.2296 C.ar    1  ZINC000550782577    0.0300
      6 C6        -11.2791   -2.6140   56.0449 C.ar    1  ZINC000550782577   -0.0600
      7 C7        -12.1363   -3.2112   56.9520 C.ar    1  ZINC000550782577   -0.1200
      8 C8        -13.4526   -2.7631   57.0145 C.ar    1  ZINC000550782577    0.1100
      9 O9        -14.3269   -3.3208   57.8901 O.3     1  ZINC000550782577   -0.3000
     10 C10       -14.6005   -2.5906   59.0877 C.3     1  ZINC000550782577    0.1000
     11 C11       -14.3799   -3.4978   60.2996 C.3     1  ZINC000550782577   -0.2000
     12 C12       -13.6625   -1.3850   59.1755 C.3     1  ZINC000550782577   -0.1400
     13 C13       -16.0521   -2.1072   59.0698 C.3     1  ZINC000550782577   -0.2000
     14 C14       -13.8621   -1.7353   56.1683 C.ar    1  ZINC000550782577   -0.0100
     15 N15       -13.0214   -1.1857   55.3219 N.ar    1  ZINC000550782577   -0.4100
     16 C16        -8.8619    0.3559   53.7229 C.3     1  ZINC000550782577    0.1400
     17 H17        -8.0065    0.7834   54.2458 H       1  ZINC000550782577    0.1100
     18 C18        -8.3779   -0.6801   52.7016 C.3     1  ZINC000550782577   -0.1300
     19 C19        -7.2685   -0.0484   51.8632 C.3     1  ZINC000550782577   -0.0800
     20 C20        -7.7128    1.2816   51.3129 C.ar    1  ZINC000550782577   -0.0800
     21 C21        -7.0010    1.8094   50.2438 C.ar    1  ZINC000550782577   -0.1200
     22 C22        -7.3547    3.0264   49.6985 C.ar    1  ZINC000550782577   -0.1200
     23 C23        -8.4258    3.7271   50.2204 C.ar    1  ZINC000550782577   -0.1200
     24 C24        -9.1358    3.2032   51.2812 C.ar    1  ZINC000550782577   -0.1200
     25 C25        -8.7836    1.9768   51.8291 C.ar    1  ZINC000550782577   -0.0700
     26 C26        -9.6111    1.4574   52.9757 C.3     1  ZINC000550782577   -0.0900
     27 H27        -8.9474   -1.1129   56.4346 H       1  ZINC000550782577    0.0600
     28 H28        -8.8409    0.6602   56.3190 H       1  ZINC000550782577    0.0600
     29 H29       -10.4020   -0.1162   56.6769 H       1  ZINC000550782577    0.1100
     30 H30       -10.2513   -2.9369   55.9692 H       1  ZINC000550782577    0.1600
     31 H31       -11.7923   -4.0068   57.5964 H       1  ZINC000550782577    0.1500
     32 H32       -13.3214   -3.5062   60.5594 H       1  ZINC000550782577    0.0700
     33 H33       -14.9583   -3.1230   61.1441 H       1  ZINC000550782577    0.0800
     34 H34       -14.7030   -4.5107   60.0591 H       1  ZINC000550782577    0.0800
     35 H35       -13.8197   -0.7387   58.3119 H       1  ZINC000550782577    0.0700
     36 H36       -13.8712   -0.8282   60.0890 H       1  ZINC000550782577    0.0800
     37 H37       -12.6284   -1.7295   59.1881 H       1  ZINC000550782577    0.0700
     38 H38       -16.7204   -2.9663   59.0119 H       1  ZINC000550782577    0.0800
     39 H39       -16.2594   -1.5463   59.9812 H       1  ZINC000550782577    0.0800
     40 H40       -16.2104   -1.4647   58.2037 H       1  ZINC000550782577    0.0700
     41 H41       -14.8821   -1.3831   56.2119 H       1  ZINC000550782577    0.1900
     42 H42        -7.9909   -1.5559   53.2224 H       1  ZINC000550782577    0.0700
     43 H43        -9.2053   -0.9726   52.0551 H       1  ZINC000550782577    0.0700
     44 H44        -6.3858    0.0970   52.4860 H       1  ZINC000550782577    0.0800
     45 H45        -7.0190   -0.7141   51.0369 H       1  ZINC000550782577    0.0800
     46 H46        -6.1634    1.2630   49.8361 H       1  ZINC000550782577    0.1200
     47 H47        -6.7965    3.4304   48.8669 H       1  ZINC000550782577    0.1200
     48 H48        -8.7057    4.6816   49.7997 H       1  ZINC000550782577    0.1200
     49 H49        -9.9723    3.7515   51.6886 H       1  ZINC000550782577    0.1200
     50 H50       -10.5482    1.0561   52.5900 H       1  ZINC000550782577    0.0800
     51 H51        -9.8270    2.2756   53.6628 H       1  ZINC000550782577    0.0800
@<TRIPOS>BOND
     1     1     2    1
     2     1    27    1
     3     1    28    1
     4     1    29    1
     5     2     3   am
     6     2    16    1
     7     3     4    2
     8     3     5    1
     9     5    15   ar
    10     5     6   ar
    11     6     7   ar
    12     6    30    1
    13     7     8   ar
    14     7    31    1
    15     8     9    1
    16     8    14   ar
    17     9    10    1
    18    10    11    1
    19    10    12    1
    20    10    13    1
    21    11    32    1
    22    11    33    1
    23    11    34    1
    24    12    35    1
    25    12    36    1
    26    12    37    1
    27    13    38    1
    28    13    39    1
    29    13    40    1
    30    14    15   ar
    31    14    41    1
    32    16    17    1
    33    16    26    1
    34    16    18    1
    35    18    19    1
    36    18    42    1
    37    18    43    1
    38    19    20    1
    39    19    44    1
    40    19    45    1
    41    20    25   ar
    42    20    21   ar
    43    21    22   ar
    44    21    46    1
    45    22    23   ar
    46    22    47    1
    47    23    24   ar
    48    23    48    1
    49    24    25   ar
    50    24    49    1
    51    25    26    1
    52    26    50    1
    53    26    51    1
@<TRIPOS>SUBSTRUCTURE
     1 ZINC000550782577        1 TEMP              0 ****  ****    0 ROOT


##########                                Name:    ZINC001023407238
##########                DOCK_Rotatable_Bonds:                   7
##########                         Heavy_Atoms:                  25
##########                    Molecular_Weight:             349.387
##########                DOCK_Rotatable_Bonds:                   7
##########                       Formal_Charge:          -0.0300008
##########                     HBond_Acceptors:                   8
##########                        HBond_Donors:                   2
##########                         Heavy_Atoms:                  25
##########                          Grid_Score:          -26.605204
##########                     Grid_vdw_energy:          -26.842764
##########                      Grid_es_energy:            0.237560
##########           Internal_energy_repulsive:           10.107432

@<TRIPOS>MOLECULE
ZINC001023407238
 48 50 1 0 0
SMALL
USER_CHARGES


@<TRIPOS>ATOM
      1 C1         -8.1948   -1.3361   60.1177 C.3     1  ZINC001023407238   -0.0900
      2 C2         -8.4296    0.1114   60.4651 C.2     1  ZINC001023407238   -0.1100
      3 C3         -8.2192    1.1962   59.6407 C.2     1  ZINC001023407238   -0.0500
      4 C4         -7.7243    1.1534   58.2606 C.2     1  ZINC001023407238    0.6100
      5 O5         -6.6013    1.5461   58.0045 O.2     1  ZINC001023407238   -0.5100
      6 N6         -8.5133    0.6792   57.2762 N.am    1  ZINC001023407238   -0.6100
      7 C7         -8.1457    0.5801   55.8561 C.3     1  ZINC001023407238    0.0800
      8 C8         -9.3469   -0.0434   55.1144 C.3     1  ZINC001023407238    0.0900
      9 H9         -9.9716    0.7323   54.6717 H       1  ZINC001023407238    0.0800
     10 O10        -8.9021   -0.9633   54.1155 O.3     1  ZINC001023407238   -0.5500
     11 C11       -10.1088   -0.7824   56.2462 C.3     1  ZINC001023407238    0.1400
     12 H12        -9.6683   -1.7604   56.4398 H       1  ZINC001023407238    0.1200
     13 N13       -11.5333   -0.9049   55.9271 N.am    1  ZINC001023407238   -0.7200
     14 C14       -12.1139   -2.1208   55.8920 C.2     1  ZINC001023407238    0.5200
     15 O15       -11.4565   -3.1135   56.1232 O.2     1  ZINC001023407238   -0.5300
     16 C16       -13.5797   -2.2467   55.5656 C.3     1  ZINC001023407238   -0.1300
     17 C17       -14.4072   -1.9815   56.8248 C.3     1  ZINC001023407238   -0.1100
     18 H18       -14.2556   -0.9619   57.1793 H       1  ZINC001023407238    0.1100
     19 C19       -15.9060   -2.2577   56.5671 C.3     1  ZINC001023407238    0.0600
     20 O20       -16.3983   -2.7991   57.8285 O.3     1  ZINC001023407238   -0.3500
     21 C21       -15.4169   -3.4652   58.4533 C.2     1  ZINC001023407238    0.4800
     22 O22       -15.5812   -4.3050   59.3065 O.2     1  ZINC001023407238   -0.4600
     23 C23       -14.0686   -3.0050   57.9315 C.3     1  ZINC001023407238   -0.1800
     24 C24        -9.8858    0.1682   57.4461 C.3     1  ZINC001023407238    0.1000
     25 N25        -8.5586    2.3270   60.3487 N.pl3   1  ZINC001023407238   -0.4200
     26 C26        -8.4861    3.7020   59.8485 C.3     1  ZINC001023407238    0.0700
     27 C27        -8.9710    1.9564   61.5854 C.2     1  ZINC001023407238    0.0100
     28 C28        -8.9077    0.6068   61.6822 C.2     1  ZINC001023407238   -0.2000
     29 H29        -9.1022   -1.7579   59.6853 H       1  ZINC001023407238    0.0600
     30 H30        -7.3807   -1.4093   59.3965 H       1  ZINC001023407238    0.0600
     31 H31        -7.9317   -1.8883   61.0199 H       1  ZINC001023407238    0.0700
     32 H32        -7.9382    1.5727   55.4568 H       1  ZINC001023407238    0.0800
     33 H33        -7.2691   -0.0578   55.7438 H       1  ZINC001023407238    0.0800
     34 H34        -9.5680   -1.6147   53.8562 H       1  ZINC001023407238    0.3900
     35 H35       -12.0588   -0.1111   55.7412 H       1  ZINC001023407238    0.4100
     36 H36       -13.8445   -1.5204   54.7972 H       1  ZINC001023407238    0.1000
     37 H37       -13.7855   -3.2530   55.2007 H       1  ZINC001023407238    0.1100
     38 H38       -16.4267   -1.3323   56.3210 H       1  ZINC001023407238    0.1200
     39 H39       -16.0265   -2.9877   55.7667 H       1  ZINC001023407238    0.0800
     40 H40       -13.5171   -3.8462   57.5115 H       1  ZINC001023407238    0.1100
     41 H41       -13.4939   -2.5336   58.7288 H       1  ZINC001023407238    0.1200
     42 H42        -9.9773   -0.3781   58.3850 H       1  ZINC001023407238    0.0900
     43 H43       -10.5983    0.9924   57.4148 H       1  ZINC001023407238    0.0800
     44 H44        -9.4595    3.9981   59.4574 H       1  ZINC001023407238    0.0800
     45 H45        -8.2029    4.3700   60.6619 H       1  ZINC001023407238    0.0900
     46 H46        -7.7421    3.7609   59.0541 H       1  ZINC001023407238    0.0800
     47 H47        -9.3001    2.6272   62.3650 H       1  ZINC001023407238    0.1700
     48 H48        -9.1726    0.0182   62.5482 H       1  ZINC001023407238    0.1400
@<TRIPOS>BOND
     1     1     2    1
     2     1    29    1
     3     1    30    1
     4     1    31    1
     5     2    28    1
     6     2     3    2
     7     3     4    1
     8     3    25    1
     9     4     5    2
    10     4     6   am
    11     6    24    1
    12     6     7    1
    13     7     8    1
    14     7    32    1
    15     7    33    1
    16     8     9    1
    17     8    10    1
    18     8    11    1
    19    10    34    1
    20    11    12    1
    21    11    13    1
    22    11    24    1
    23    13    14   am
    24    13    35    1
    25    14    15    2
    26    14    16    1
    27    16    17    1
    28    16    36    1
    29    16    37    1
    30    17    18    1
    31    17    23    1
    32    17    19    1
    33    19    20    1
    34    19    38    1
    35    19    39    1
    36    20    21    1
    37    21    22    2
    38    21    23    1
    39    23    40    1
    40    23    41    1
    41    24    42    1
    42    24    43    1
    43    25    26    1
    44    25    27    1
    45    26    44    1
    46    26    45    1
    47    26    46    1
    48    27    28    2
    49    27    47    1
    50    28    48    1
@<TRIPOS>SUBSTRUCTURE
     1 ZINC001023407238        1 TEMP              0 ****  ****    0 ROOT


##########                                Name:    ZINC000653668607
##########                DOCK_Rotatable_Bonds:                   5
##########                         Heavy_Atoms:                  28
##########                    Molecular_Weight:             379.459
##########                DOCK_Rotatable_Bonds:                   5
##########                       Formal_Charge:          0.00999918
##########                     HBond_Acceptors:                   6
##########                        HBond_Donors:                   2
##########                         Heavy_Atoms:                  28
##########                          Grid_Score:          -26.588865
##########                     Grid_vdw_energy:          -26.126356
##########                      Grid_es_energy:           -0.462508
##########           Internal_energy_repulsive:           12.772277

@<TRIPOS>MOLECULE
ZINC000653668607
 53 56 1 0 0
SMALL
USER_CHARGES


@<TRIPOS>ATOM
      1 C1         -8.5097   -0.7962   62.2146 C.3     1  ZINC000653668607    0.0300
      2 O2         -9.1836   -0.0065   61.2326 O.3     1  ZINC000653668607   -0.3200
      3 C3        -10.0853   -0.6442   60.4408 C.ar    1  ZINC000653668607    0.1300
      4 C4        -11.2659   -1.1321   60.9817 C.ar    1  ZINC000653668607   -0.2000
      5 C5        -12.1755   -1.7751   60.1691 C.ar    1  ZINC000653668607   -0.0800
      6 C6        -11.9211   -1.9391   58.8134 C.ar    1  ZINC000653668607   -0.1000
      7 C7        -12.9667   -2.6384   57.9843 C.3     1  ZINC000653668607   -0.0800
      8 C8        -12.3725   -3.1143   56.6602 C.3     1  ZINC000653668607   -0.1200
      9 C9        -11.6533   -1.9320   56.0000 C.3     1  ZINC000653668607   -0.1100
     10 C10       -10.4028   -1.6121   56.8163 C.3     1  ZINC000653668607   -0.0600
     11 H11        -9.6808   -2.4203   56.6995 H       1  ZINC000653668607    0.1000
     12 C12        -9.7963   -0.3275   56.3135 C.2     1  ZINC000653668607    0.5200
     13 O13       -10.4542    0.6914   56.3054 O.2     1  ZINC000653668607   -0.5100
     14 N14        -8.5228   -0.3107   55.8726 N.am    1  ZINC000653668607   -0.6700
     15 C15        -7.9596    0.8820   55.4057 C.ar    1  ZINC000653668607    0.1500
     16 C16        -7.9164    1.9996   56.2294 C.ar    1  ZINC000653668607   -0.1100
     17 C17        -7.3605    3.1779   55.7690 C.ar    1  ZINC000653668607   -0.0900
     18 C18        -6.8461    3.2485   54.4889 C.ar    1  ZINC000653668607   -0.1200
     19 C19        -6.8868    2.1343   53.6599 C.ar    1  ZINC000653668607    0.1700
     20 N20        -6.3659    2.2066   52.3630 N.am    1  ZINC000653668607   -0.5800
     21 C21        -5.0248    2.7565   52.1586 C.3     1  ZINC000653668607    0.1100
     22 C22        -4.4004    2.1105   50.9172 C.3     1  ZINC000653668607   -0.1500
     23 C23        -5.3436    2.3252   49.7288 C.3     1  ZINC000653668607    0.1100
     24 N24        -6.6674    1.7987   50.0651 N.am    1  ZINC000653668607   -0.7400
     25 C25        -7.1036    1.7656   51.3332 C.2     1  ZINC000653668607    0.7100
     26 O26        -8.2156    1.3278   51.5568 O.2     1  ZINC000653668607   -0.5800
     27 C27        -7.4386    0.9480   54.1213 C.ar    1  ZINC000653668607   -0.1300
     28 C28       -10.7469   -1.4604   58.2751 C.ar    1  ZINC000653668607   -0.0300
     29 C29        -9.8332   -0.8055   59.0889 C.ar    1  ZINC000653668607   -0.1500
     30 H30        -9.2413   -1.2312   62.8955 H       1  ZINC000653668607    0.0600
     31 H31        -7.9538   -1.5933   61.7209 H       1  ZINC000653668607    0.0600
     32 H32        -7.8199   -0.1663   62.7764 H       1  ZINC000653668607    0.1000
     33 H33       -11.4714   -1.0094   62.0348 H       1  ZINC000653668607    0.1300
     34 H34       -13.0944   -2.1550   60.5907 H       1  ZINC000653668607    0.1300
     35 H35       -13.3479   -3.4974   58.5365 H       1  ZINC000653668607    0.0800
     36 H36       -13.7863   -1.9486   57.7831 H       1  ZINC000653668607    0.0800
     37 H37       -11.6616   -3.9195   56.8452 H       1  ZINC000653668607    0.0700
     38 H38       -13.1694   -3.4702   56.0072 H       1  ZINC000653668607    0.0800
     39 H39       -11.3690   -2.1976   54.9817 H       1  ZINC000653668607    0.0700
     40 H40       -12.3126   -1.0642   55.9831 H       1  ZINC000653668607    0.0800
     41 H41        -7.9966   -1.1256   55.8791 H       1  ZINC000653668607    0.4100
     42 H42        -8.3181    1.9477   57.2306 H       1  ZINC000653668607    0.1400
     43 H43        -7.3283    4.0456   56.4112 H       1  ZINC000653668607    0.1300
     44 H44        -6.4122    4.1708   54.1319 H       1  ZINC000653668607    0.1200
     45 H45        -5.0915    3.8347   52.0137 H       1  ZINC000653668607    0.0700
     46 H46        -4.4066    2.5426   53.0305 H       1  ZINC000653668607    0.0900
     47 H47        -3.4368    2.5751   50.7083 H       1  ZINC000653668607    0.1000
     48 H48        -4.2652    1.0426   51.0891 H       1  ZINC000653668607    0.0800
     49 H49        -5.4197    3.3907   49.5119 H       1  ZINC000653668607    0.0700
     50 H50        -4.9544    1.8016   48.8555 H       1  ZINC000653668607    0.0900
     51 H51        -7.2394    1.4633   49.3570 H       1  ZINC000653668607    0.4200
     52 H52        -7.4710    0.0805   53.4789 H       1  ZINC000653668607    0.1300
     53 H53        -8.9162   -0.4231   58.6654 H       1  ZINC000653668607    0.1200
@<TRIPOS>BOND
     1     1     2    1
     2     1    30    1
     3     1    31    1
     4     1    32    1
     5     2     3    1
     6     3    29   ar
     7     3     4   ar
     8     4     5   ar
     9     4    33    1
    10     5     6   ar
    11     5    34    1
    12     6    28   ar
    13     6     7    1
    14     7     8    1
    15     7    35    1
    16     7    36    1
    17     8     9    1
    18     8    37    1
    19     8    38    1
    20     9    10    1
    21     9    39    1
    22     9    40    1
    23    10    11    1
    24    10    12    1
    25    10    28    1
    26    12    13    2
    27    12    14   am
    28    14    15    1
    29    14    41    1
    30    15    27   ar
    31    15    16   ar
    32    16    17   ar
    33    16    42    1
    34    17    18   ar
    35    17    43    1
    36    18    19   ar
    37    18    44    1
    38    19    20    1
    39    19    27   ar
    40    20    25   am
    41    20    21    1
    42    21    22    1
    43    21    45    1
    44    21    46    1
    45    22    23    1
    46    22    47    1
    47    22    48    1
    48    23    24    1
    49    23    49    1
    50    23    50    1
    51    24    25   am
    52    24    51    1
    53    25    26    2
    54    27    52    1
    55    28    29   ar
    56    29    53    1
@<TRIPOS>SUBSTRUCTURE
     1 ZINC000653668607        1 TEMP              0 ****  ****    0 ROOT


##########                                Name:    ZINC000647468483
##########                DOCK_Rotatable_Bonds:                   5
##########                         Heavy_Atoms:                  24
##########                    Molecular_Weight:             341.373
##########                DOCK_Rotatable_Bonds:                   5
##########                       Formal_Charge:           0.0300004
##########                     HBond_Acceptors:                   6
##########                        HBond_Donors:                   2
##########                         Heavy_Atoms:                  24
##########                          Grid_Score:          -26.570568
##########                     Grid_vdw_energy:          -23.555958
##########                      Grid_es_energy:           -3.014609
##########           Internal_energy_repulsive:           19.949991

@<TRIPOS>MOLECULE
ZINC000647468483
 46 48 1 0 0
SMALL
USER_CHARGES


@<TRIPOS>ATOM
      1 O1         -0.6735    0.0006   43.0635 O.co2   1  ZINC000647468483   -0.6800
      2 C2         -0.1958    0.4926   44.0716 C.2     1  ZINC000647468483    0.5000
      3 O3          0.9037    1.0179   44.0316 O.co2   1  ZINC000647468483   -0.6900
      4 C4         -0.9672    0.4570   45.3658 C.3     1  ZINC000647468483   -0.1500
      5 H5         -1.5659   -0.4515   45.4320 H       1  ZINC000647468483    0.0800
      6 C6         -1.8603    1.7144   45.5072 C.3     1  ZINC000647468483   -0.1100
      7 C7         -2.0783    1.8544   47.0280 C.3     1  ZINC000647468483   -0.1400
      8 C8         -0.9025    1.1323   47.7089 C.3     1  ZINC000647468483    0.0100
      9 H9         -1.2737    0.3142   48.3262 H       1  ZINC000647468483    0.1400
     10 N10        -0.1404    2.0791   48.5341 N.4     1  ZINC000647468483   -0.5000
     11 H11         0.4339    2.6572   47.9390 H       1  ZINC000647468483    0.4200
     12 H12        -0.7792    2.6618   49.0542 H       1  ZINC000647468483    0.4300
     13 C13         0.7155    1.3356   49.4682 C.3     1  ZINC000647468483    0.0200
     14 H14         0.3792    0.3013   49.5400 H       1  ZINC000647468483    0.1500
     15 C15         2.1785    1.3825   48.9940 C.3     1  ZINC000647468483   -0.1400
     16 C16         2.9828    2.0747   50.1137 C.3     1  ZINC000647468483   -0.1300
     17 C17         1.9289    2.9195   50.8718 C.3     1  ZINC000647468483   -0.1300
     18 C18         0.6807    2.0004   50.8599 C.3     1  ZINC000647468483   -0.0600
     19 H19         0.7538    1.2475   51.6449 H       1  ZINC000647468483    0.1300
     20 C20        -0.5759    2.8152   51.0278 C.ar    1  ZINC000647468483   -0.1200
     21 C21        -0.4934    4.1447   51.3961 C.ar    1  ZINC000647468483   -0.0700
     22 C22        -1.6462    4.8922   51.5501 C.ar    1  ZINC000647468483   -0.1000
     23 C23        -2.8812    4.3099   51.3354 C.ar    1  ZINC000647468483   -0.0600
     24 C24        -2.9637    2.9802   50.9662 C.ar    1  ZINC000647468483   -0.1600
     25 C25        -4.3103    2.3452   50.7325 C.3     1  ZINC000647468483    0.5000
     26 F26        -4.9512    2.1461   51.9599 F       1  ZINC000647468483   -0.1700
     27 F27        -5.0894    3.1859   49.9304 F       1  ZINC000647468483   -0.1700
     28 F28        -4.1401    1.1140   50.0901 F       1  ZINC000647468483   -0.1700
     29 C29        -1.8110    2.2341   50.8080 C.ar    1  ZINC000647468483   -0.1100
     30 C30        -0.0106    0.5736   46.5783 C.3     1  ZINC000647468483   -0.1200
     31 H31        -1.3486    2.5922   45.1128 H       1  ZINC000647468483    0.0800
     32 H32        -2.8123    1.5655   44.9976 H       1  ZINC000647468483    0.0800
     33 H33        -2.0830    2.9076   47.3091 H       1  ZINC000647468483    0.0700
     34 H34        -3.0203    1.3869   47.3149 H       1  ZINC000647468483    0.1000
     35 H35         2.5525    0.3709   48.8363 H       1  ZINC000647468483    0.1000
     36 H36         2.2535    1.9569   48.0706 H       1  ZINC000647468483    0.0900
     37 H37         3.4275    1.3337   50.7780 H       1  ZINC000647468483    0.0800
     38 H38         3.7531    2.7181   49.6883 H       1  ZINC000647468483    0.0900
     39 H39         2.2538    3.1162   51.8935 H       1  ZINC000647468483    0.0900
     40 H40         1.7277    3.8512   50.3431 H       1  ZINC000647468483    0.0800
     41 H41         0.4717    4.5997   51.5638 H       1  ZINC000647468483    0.1400
     42 H42        -1.5817    5.9309   51.8386 H       1  ZINC000647468483    0.1500
     43 H43        -3.7817    4.8936   51.4565 H       1  ZINC000647468483    0.1500
     44 H44        -1.8754    1.1953   50.5196 H       1  ZINC000647468483    0.1400
     45 H45         0.3859   -0.4039   46.8530 H       1  ZINC000647468483    0.0900
     46 H46         0.8007    1.2663   46.3548 H       1  ZINC000647468483    0.1000
@<TRIPOS>BOND
     1     1     2   ar
     2     2     3   ar
     3     2     4    1
     4     4     5    1
     5     4    30    1
     6     4     6    1
     7     6     7    1
     8     6    31    1
     9     6    32    1
    10     7     8    1
    11     7    33    1
    12     7    34    1
    13     8     9    1
    14     8    10    1
    15     8    30    1
    16    10    11    1
    17    10    12    1
    18    10    13    1
    19    13    14    1
    20    13    18    1
    21    13    15    1
    22    15    16    1
    23    15    35    1
    24    15    36    1
    25    16    17    1
    26    16    37    1
    27    16    38    1
    28    17    18    1
    29    17    39    1
    30    17    40    1
    31    18    19    1
    32    18    20    1
    33    20    29   ar
    34    20    21   ar
    35    21    22   ar
    36    21    41    1
    37    22    23   ar
    38    22    42    1
    39    23    24   ar
    40    23    43    1
    41    24    25    1
    42    24    29   ar
    43    25    26    1
    44    25    27    1
    45    25    28    1
    46    29    44    1
    47    30    45    1
    48    30    46    1
@<TRIPOS>SUBSTRUCTURE
     1 ZINC000647468483        1 TEMP              0 ****  ****    0 ROOT


##########                                Name:    ZINC001456096501
##########                DOCK_Rotatable_Bonds:                   7
##########                         Heavy_Atoms:                  24
##########                    Molecular_Weight:             333.431
##########                DOCK_Rotatable_Bonds:                   7
##########                       Formal_Charge:          -0.0200003
##########                     HBond_Acceptors:                   6
##########                        HBond_Donors:                   0
##########                         Heavy_Atoms:                  24
##########                          Grid_Score:          -26.498520
##########                     Grid_vdw_energy:          -26.365635
##########                      Grid_es_energy:           -0.132886
##########           Internal_energy_repulsive:          129.440155

@<TRIPOS>MOLECULE
ZINC001456096501
 51 52 1 0 0
SMALL
USER_CHARGES


@<TRIPOS>ATOM
      1 C1         -6.9513    1.4067   55.1553 C.3     1  ZINC001456096501    0.0400
      2 O2         -7.8988    1.8080   56.1468 O.3     1  ZINC001456096501   -0.2900
      3 C3         -7.4112    2.4270   57.2483 C.ar    1  ZINC001456096501    0.3700
      4 N4         -6.2998    3.1380   57.1646 N.ar    1  ZINC001456096501   -0.5400
      5 C5         -5.7903    3.7573   58.2120 C.ar    1  ZINC001456096501    0.1600
      6 C6         -6.4006    3.6892   59.4512 C.ar    1  ZINC001456096501   -0.2200
      7 C7         -7.5667    2.9584   59.5962 C.ar    1  ZINC001456096501   -0.0200
      8 C8         -8.0918    2.3143   58.4702 C.ar    1  ZINC001456096501   -0.2000
      9 C9         -9.3327    1.5225   58.5683 C.2     1  ZINC001456096501    0.5900
     10 O10       -10.3646    1.9472   58.0856 O.2     1  ZINC001456096501   -0.5100
     11 N11        -9.3224    0.3283   59.1931 N.am    1  ZINC001456096501   -0.6200
     12 C12        -8.1503   -0.3016   59.8182 C.3     1  ZINC001456096501    0.1000
     13 C13        -8.6080   -1.6635   60.3815 C.3     1  ZINC001456096501   -0.1200
     14 C14        -9.8781   -1.9756   59.5469 C.3     1  ZINC001456096501   -0.1200
     15 H15        -9.6152   -2.4157   58.5849 H       1  ZINC001456096501    0.0900
     16 C16       -10.8327   -2.8869   60.3211 C.3     1  ZINC001456096501    0.1200
     17 N17       -12.1847   -2.7572   59.7717 N.am    1  ZINC001456096501   -0.6200
     18 C18       -13.2221   -2.0602   60.5360 C.3     1  ZINC001456096501    0.0600
     19 C19       -12.4739   -3.2789   58.5631 C.2     1  ZINC001456096501    0.5200
     20 O20       -11.6151   -3.8559   57.9304 O.2     1  ZINC001456096501   -0.5300
     21 C21       -13.8645   -3.1454   57.9981 C.3     1  ZINC001456096501   -0.0800
     22 C22       -14.8178   -4.0623   58.7673 C.3     1  ZINC001456096501   -0.1300
     23 C23       -14.3327   -1.6950   58.1324 C.3     1  ZINC001456096501   -0.1500
     24 C24       -13.8552   -3.5435   56.5208 C.3     1  ZINC001456096501   -0.1700
     25 C25       -10.4861   -0.5597   59.3684 C.3     1  ZINC001456096501    0.1200
     26 H26        -6.4176    2.2829   54.7868 H       1  ZINC001456096501    0.0600
     27 H27        -6.2405    0.7064   55.5942 H       1  ZINC001456096501    0.0600
     28 H28        -7.4728    0.9247   54.3284 H       1  ZINC001456096501    0.1000
     29 H29        -4.8800    4.3275   58.0998 H       1  ZINC001456096501    0.1700
     30 H30        -5.9703    4.2017   60.2989 H       1  ZINC001456096501    0.1500
     31 H31        -8.0615    2.8901   60.5538 H       1  ZINC001456096501    0.1500
     32 H32        -7.3689   -0.4522   59.0733 H       1  ZINC001456096501    0.0700
     33 H33        -7.7782    0.3277   60.6266 H       1  ZINC001456096501    0.0700
     34 H34        -7.8439   -2.4240   60.2200 H       1  ZINC001456096501    0.0900
     35 H35        -8.8530   -1.5802   61.4403 H       1  ZINC001456096501    0.0800
     36 H36       -10.5013   -3.9213   60.2302 H       1  ZINC001456096501    0.0800
     37 H37       -10.8384   -2.5981   61.3721 H       1  ZINC001456096501    0.0900
     38 H38       -13.2476   -1.0112   60.2412 H       1  ZINC001456096501    0.0600
     39 H39       -14.1908   -2.5178   60.3349 H       1  ZINC001456096501    0.0900
     40 H40       -12.9998   -2.1331   61.6006 H       1  ZINC001456096501    0.0700
     41 H41       -14.8244   -3.7787   59.8198 H       1  ZINC001456096501    0.0600
     42 H42       -15.8236   -3.9658   58.3587 H       1  ZINC001456096501    0.0600
     43 H43       -14.4842   -5.0956   58.6716 H       1  ZINC001456096501    0.0600
     44 H44       -13.5857   -1.0305   57.6983 H       1  ZINC001456096501    0.0700
     45 H45       -15.2799   -1.5689   57.6082 H       1  ZINC001456096501    0.0700
     46 H46       -14.4659   -1.4524   59.1867 H       1  ZINC001456096501    0.0600
     47 H47       -13.5217   -4.5769   56.4251 H       1  ZINC001456096501    0.0600
     48 H48       -14.8611   -3.4471   56.1121 H       1  ZINC001456096501    0.0700
     49 H49       -13.1761   -2.8903   55.9728 H       1  ZINC001456096501    0.0800
     50 H50       -11.0557   -0.2769   60.2538 H       1  ZINC001456096501    0.0800
     51 H51       -11.1201   -0.5279   58.4823 H       1  ZINC001456096501    0.0700
@<TRIPOS>BOND
     1     1     2    1
     2     1    26    1
     3     1    27    1
     4     1    28    1
     5     2     3    1
     6     3     8   ar
     7     3     4   ar
     8     4     5   ar
     9     5     6   ar
    10     5    29    1
    11     6     7   ar
    12     6    30    1
    13     7     8   ar
    14     7    31    1
    15     8     9    1
    16     9    10    2
    17     9    11   am
    18    11    25    1
    19    11    12    1
    20    12    13    1
    21    12    32    1
    22    12    33    1
    23    13    14    1
    24    13    34    1
    25    13    35    1
    26    14    15    1
    27    14    16    1
    28    14    25    1
    29    16    17    1
    30    16    36    1
    31    16    37    1
    32    17    18    1
    33    17    19   am
    34    18    38    1
    35    18    39    1
    36    18    40    1
    37    19    20    2
    38    19    21    1
    39    21    22    1
    40    21    23    1
    41    21    24    1
    42    22    41    1
    43    22    42    1
    44    22    43    1
    45    23    44    1
    46    23    45    1
    47    23    46    1
    48    24    47    1
    49    24    48    1
    50    24    49    1
    51    25    50    1
    52    25    51    1
@<TRIPOS>SUBSTRUCTURE
     1 ZINC001456096501        1 TEMP              0 ****  ****    0 ROOT


##########                                Name:    ZINC000561219098
##########                DOCK_Rotatable_Bonds:                   4
##########                         Heavy_Atoms:                  28
##########                    Molecular_Weight:             423.273
##########                DOCK_Rotatable_Bonds:                   4
##########                       Formal_Charge:          0.00999953
##########                     HBond_Acceptors:                   9
##########                        HBond_Donors:                   1
##########                         Heavy_Atoms:                  28
##########                          Grid_Score:          -26.488882
##########                     Grid_vdw_energy:          -26.033138
##########                      Grid_es_energy:           -0.455744
##########           Internal_energy_repulsive:           11.847322

@<TRIPOS>MOLECULE
ZINC000561219098
 45 48 1 0 0
SMALL
USER_CHARGES


@<TRIPOS>ATOM
      1 C1         -1.7306    2.1306   46.7549 C.3     1  ZINC000561219098    0.0700
      2 N2         -2.1711    2.3921   48.1274 N.pl3   1  ZINC000561219098   -0.4500
      3 C3         -1.5688    3.2464   49.0038 C.2     1  ZINC000561219098   -0.0100
      4 C4         -2.2540    3.2233   50.1625 C.2     1  ZINC000561219098   -0.1700
      5 C5         -3.3298    2.3145   49.9994 C.2     1  ZINC000561219098   -0.1100
      6 C6         -4.3536    1.9673   51.0178 C.2     1  ZINC000561219098    0.1600
      7 N7         -4.4193    2.4537   52.2399 N.2     1  ZINC000561219098   -0.2700
      8 N8         -5.5210    1.8851   52.8908 N.pl3   1  ZINC000561219098   -0.4700
      9 C9         -6.1300    1.0281   52.0166 C.2     1  ZINC000561219098    0.0300
     10 C10        -7.3281    0.2156   52.2828 C.2     1  ZINC000561219098    0.5900
     11 O11        -7.2451   -0.9974   52.3168 O.2     1  ZINC000561219098   -0.5000
     12 N12        -8.5171    0.8156   52.4887 N.am    1  ZINC000561219098   -0.6100
     13 C13        -8.6424    2.2813   52.4524 C.3     1  ZINC000561219098    0.0500
     14 C14        -9.3745    2.7357   53.7203 C.3     1  ZINC000561219098    0.0500
     15 O15       -10.5918    1.9976   53.8510 O.3     1  ZINC000561219098   -0.3700
     16 C16       -10.4079    0.5888   54.0094 C.3     1  ZINC000561219098    0.1200
     17 H17        -9.7804    0.3991   54.8802 H       1  ZINC000561219098    0.0900
     18 C18       -11.7471   -0.0754   54.1996 C.ar    1  ZINC000561219098   -0.0500
     19 C19       -12.8901    0.5190   53.6997 C.ar    1  ZINC000561219098   -0.1000
     20 C20       -14.1205   -0.0912   53.8739 C.ar    1  ZINC000561219098    0.1200
     21 F21       -15.2381    0.4894   53.3849 F       1  ZINC000561219098   -0.1200
     22 C22       -14.2051   -1.2977   54.5496 C.ar    1  ZINC000561219098   -0.0600
     23 Cl23      -15.7474   -2.0642   54.7684 Cl      1  ZINC000561219098   -0.0300
     24 C24       -13.0604   -1.8913   55.0495 C.ar    1  ZINC000561219098   -0.0700
     25 C25       -11.8310   -1.2831   54.8700 C.ar    1  ZINC000561219098   -0.0300
     26 Cl26      -10.3943   -2.0289   55.4971 Cl      1  ZINC000561219098   -0.0400
     27 C27        -9.7298    0.0242   52.7506 C.3     1  ZINC000561219098    0.0900
     28 C28        -5.4169    1.0709   50.8381 C.2     1  ZINC000561219098   -0.1700
     29 C29        -3.2519    1.8257   48.7331 C.2     1  ZINC000561219098    0.0300
     30 H30        -2.2133    2.8355   46.0779 H       1  ZINC000561219098    0.0800
     31 H31        -0.6489    2.2488   46.6918 H       1  ZINC000561219098    0.0900
     32 H32        -2.0019    1.1130   46.4739 H       1  ZINC000561219098    0.0900
     33 H33        -0.6902    3.8412   48.8020 H       1  ZINC000561219098    0.1700
     34 H34        -2.0261    3.7920   51.0519 H       1  ZINC000561219098    0.1400
     35 H35        -5.8020    2.0666   53.8013 H       1  ZINC000561219098    0.4400
     36 H36        -7.6512    2.7337   52.4186 H       1  ZINC000561219098    0.1000
     37 H37        -9.2126    2.5793   51.5725 H       1  ZINC000561219098    0.0900
     38 H38        -8.7432    2.5539   54.5901 H       1  ZINC000561219098    0.0700
     39 H39        -9.5997    3.7998   53.6490 H       1  ZINC000561219098    0.1200
     40 H40       -12.8234    1.4597   53.1733 H       1  ZINC000561219098    0.1600
     41 H41       -13.1257   -2.8316   55.5767 H       1  ZINC000561219098    0.1600
     42 H42       -10.4115    0.0955   51.9032 H       1  ZINC000561219098    0.0900
     43 H43        -9.4573   -1.0181   52.9166 H       1  ZINC000561219098    0.1100
     44 H44        -5.6337    0.5101   49.9409 H       1  ZINC000561219098    0.1600
     45 H45        -3.9250    1.1081   48.2877 H       1  ZINC000561219098    0.1700
@<TRIPOS>BOND
     1     1     2    1
     2     1    30    1
     3     1    31    1
     4     1    32    1
     5     2    29    1
     6     2     3    1
     7     3     4    2
     8     3    33    1
     9     4     5    1
    10     4    34    1
    11     5     6    1
    12     5    29    2
    13     6    28    1
    14     6     7    2
    15     7     8    1
    16     8     9    1
    17     8    35    1
    18     9    10    1
    19     9    28    2
    20    10    11    2
    21    10    12   am
    22    12    27    1
    23    12    13    1
    24    13    14    1
    25    13    36    1
    26    13    37    1
    27    14    15    1
    28    14    38    1
    29    14    39    1
    30    15    16    1
    31    16    17    1
    32    16    18    1
    33    16    27    1
    34    18    25   ar
    35    18    19   ar
    36    19    20   ar
    37    19    40    1
    38    20    21    1
    39    20    22   ar
    40    22    23    1
    41    22    24   ar
    42    24    25   ar
    43    24    41    1
    44    25    26    1
    45    27    42    1
    46    27    43    1
    47    28    44    1
    48    29    45    1
@<TRIPOS>SUBSTRUCTURE
     1 ZINC000561219098        1 TEMP              0 ****  ****    0 ROOT


##########                                Name:    ZINC000534799364
##########                DOCK_Rotatable_Bonds:                   4
##########                         Heavy_Atoms:                  29
##########                    Molecular_Weight:             391.491
##########                DOCK_Rotatable_Bonds:                   4
##########                       Formal_Charge:           0.0199998
##########                     HBond_Acceptors:                   6
##########                        HBond_Donors:                   0
##########                         Heavy_Atoms:                  29
##########                          Grid_Score:          -26.435184
##########                     Grid_vdw_energy:          -26.209795
##########                      Grid_es_energy:           -0.225390
##########           Internal_energy_repulsive:           12.294470

@<TRIPOS>MOLECULE
ZINC000534799364
 55 59 1 0 0
SMALL
USER_CHARGES


@<TRIPOS>ATOM
      1 C1         -8.4628    2.8183   60.6280 C.3     1  ZINC000534799364   -0.1100
      2 C2         -8.6820    2.4348   62.0688 C.ar    1  ZINC000534799364   -0.0200
      3 C3         -8.4082    3.3288   63.0906 C.ar    1  ZINC000534799364   -0.1700
      4 C4         -8.6213    2.9426   64.4011 C.ar    1  ZINC000534799364    0.1000
      5 N5         -9.0795    1.7399   64.6872 N.ar    1  ZINC000534799364   -0.4800
      6 C6         -9.3530    0.8587   63.7458 C.ar    1  ZINC000534799364    0.0800
      7 C7         -9.1705    1.1744   62.4056 C.ar    1  ZINC000534799364    0.0300
      8 N8         -9.4619    0.2380   61.4106 N.3     1  ZINC000534799364   -0.5000
      9 C9        -10.7786   -0.3752   61.6339 C.3     1  ZINC000534799364    0.0600
     10 C10       -11.0939   -1.3335   60.4830 C.3     1  ZINC000534799364    0.0600
     11 N11       -10.0451   -2.3598   60.4022 N.3     1  ZINC000534799364   -0.5300
     12 C12       -10.3515   -3.3444   59.3559 C.3     1  ZINC000534799364    0.1400
     13 C13       -10.8618   -2.6323   58.1298 C.2     1  ZINC000534799364    0.1100
     14 N14       -10.1466   -1.8994   57.3162 N.2     1  ZINC000534799364   -0.2800
     15 N15       -10.9882   -1.4176   56.3065 N.pl3   1  ZINC000534799364   -0.3100
     16 C16       -10.6071   -0.5932   55.2378 C.ar    1  ZINC000534799364    0.1500
     17 C17       -10.6063   -1.0911   53.9418 C.ar    1  ZINC000534799364   -0.1000
     18 C18       -10.2307   -0.2778   52.8908 C.ar    1  ZINC000534799364   -0.1300
     19 C19        -9.8549    1.0336   53.1290 C.ar    1  ZINC000534799364    0.1000
     20 F20        -9.4881    1.8279   52.0995 F       1  ZINC000534799364   -0.1300
     21 C21        -9.8551    1.5321   54.4211 C.ar    1  ZINC000534799364   -0.1300
     22 C22       -10.2357    0.7235   55.4740 C.ar    1  ZINC000534799364   -0.0800
     23 C23       -12.2360   -1.8887   56.5443 C.2     1  ZINC000534799364    0.0500
     24 C24       -12.1835   -2.6465   57.6621 C.2     1  ZINC000534799364   -0.2200
     25 C25       -13.5539   -3.2044   57.9813 C.3     1  ZINC000534799364   -0.0400
     26 C26       -14.5379   -2.3425   57.1605 C.3     1  ZINC000534799364   -0.1200
     27 C27       -13.6455   -1.8609   55.9944 C.3     1  ZINC000534799364   -0.0500
     28 C28        -8.7284   -1.7466   60.1789 C.3     1  ZINC000534799364    0.0600
     29 C29        -8.4131   -0.7883   61.3298 C.3     1  ZINC000534799364    0.0600
     30 H30        -9.3975    3.1847   60.2033 H       1  ZINC000534799364    0.0800
     31 H31        -7.7066    3.6013   60.5714 H       1  ZINC000534799364    0.0600
     32 H32        -8.1260    1.9465   60.0672 H       1  ZINC000534799364    0.0800
     33 H33        -8.0321    4.3161   62.8663 H       1  ZINC000534799364    0.1400
     34 H34        -8.4090    3.6358   65.2016 H       1  ZINC000534799364    0.1600
     35 H35        -9.7267   -0.1171   64.0191 H       1  ZINC000534799364    0.1500
     36 H36       -10.7682   -0.9269   62.5739 H       1  ZINC000534799364    0.0500
     37 H37       -11.5398    0.4038   61.6774 H       1  ZINC000534799364    0.0800
     38 H38       -12.0573   -1.8113   60.6610 H       1  ZINC000534799364    0.0900
     39 H39       -11.1312   -0.7772   59.5463 H       1  ZINC000534799364    0.0500
     40 H40        -9.4481   -3.8998   59.1039 H       1  ZINC000534799364    0.1000
     41 H41       -11.1131   -4.0347   59.7186 H       1  ZINC000534799364    0.0500
     42 H42       -10.8989   -2.1140   53.7559 H       1  ZINC000534799364    0.1400
     43 H43       -10.2295   -0.6649   51.8826 H       1  ZINC000534799364    0.1500
     44 H44        -9.5614    2.5550   54.6049 H       1  ZINC000534799364    0.1500
     45 H45       -10.2360    1.1125   56.4814 H       1  ZINC000534799364    0.1400
     46 H46       -13.6185   -4.2485   57.6750 H       1  ZINC000534799364    0.0800
     47 H47       -13.7634   -3.1078   59.0466 H       1  ZINC000534799364    0.0700
     48 H48       -15.3679   -2.9444   56.7908 H       1  ZINC000534799364    0.0800
     49 H49       -14.9015   -1.4999   57.7487 H       1  ZINC000534799364    0.0800
     50 H50       -13.9164   -0.8458   55.7041 H       1  ZINC000534799364    0.0800
     51 H51       -13.7368   -2.5361   55.1435 H       1  ZINC000534799364    0.0900
     52 H52        -7.9672   -2.5255   60.1354 H       1  ZINC000534799364    0.0900
     53 H53        -8.7388   -1.1949   59.2389 H       1  ZINC000534799364    0.0500
     54 H54        -7.4497   -0.3105   61.1518 H       1  ZINC000534799364    0.0800
     55 H55        -8.3759   -1.3446   62.2664 H       1  ZINC000534799364    0.0500
@<TRIPOS>BOND
     1     1     2    1
     2     1    30    1
     3     1    31    1
     4     1    32    1
     5     2     7   ar
     6     2     3   ar
     7     3     4   ar
     8     3    33    1
     9     4     5   ar
    10     4    34    1
    11     5     6   ar
    12     6     7   ar
    13     6    35    1
    14     7     8    1
    15     8    29    1
    16     8     9    1
    17     9    10    1
    18     9    36    1
    19     9    37    1
    20    10    11    1
    21    10    38    1
    22    10    39    1
    23    11    12    1
    24    11    28    1
    25    12    13    1
    26    12    40    1
    27    12    41    1
    28    13    24    1
    29    13    14    2
    30    14    15    1
    31    15    16    1
    32    15    23    1
    33    16    22   ar
    34    16    17   ar
    35    17    18   ar
    36    17    42    1
    37    18    19   ar
    38    18    43    1
    39    19    20    1
    40    19    21   ar
    41    21    22   ar
    42    21    44    1
    43    22    45    1
    44    23    27    1
    45    23    24    2
    46    24    25    1
    47    25    26    1
    48    25    46    1
    49    25    47    1
    50    26    27    1
    51    26    48    1
    52    26    49    1
    53    27    50    1
    54    27    51    1
    55    28    29    1
    56    28    52    1
    57    28    53    1
    58    29    54    1
    59    29    55    1
@<TRIPOS>SUBSTRUCTURE
     1 ZINC000534799364        1 TEMP              0 ****  ****    0 ROOT


##########                                Name:    ZINC000435292384
##########                DOCK_Rotatable_Bonds:                   6
##########                         Heavy_Atoms:                  22
##########                    Molecular_Weight:             326.503
##########                DOCK_Rotatable_Bonds:                   6
##########                       Formal_Charge:         -0.00999993
##########                     HBond_Acceptors:                   5
##########                        HBond_Donors:                   0
##########                         Heavy_Atoms:                  22
##########                          Grid_Score:          -26.430696
##########                     Grid_vdw_energy:          -26.100071
##########                      Grid_es_energy:           -0.330625
##########           Internal_energy_repulsive:           21.631573

@<TRIPOS>MOLECULE
ZINC000435292384
 52 53 1 0 0
SMALL
USER_CHARGES


@<TRIPOS>ATOM
      1 C1        -12.7481    1.2034   50.7710 C.3     1  ZINC000435292384   -0.1500
      2 C2        -11.8653    0.6117   51.8716 C.3     1  ZINC000435292384   -0.1200
      3 C3        -11.3426    1.7374   52.7665 C.3     1  ZINC000435292384   -0.1400
      4 C4        -10.4202    1.1511   53.8372 C.3     1  ZINC000435292384    0.1600
      5 H5        -10.8917    0.2752   54.2828 H       1  ZINC000435292384    0.0900
      6 C6        -10.1660    2.2003   54.9213 C.3     1  ZINC000435292384   -0.1700
      7 N7         -9.1470    0.7625   53.2254 N.am    1  ZINC000435292384   -0.6100
      8 C8         -8.3446    1.6340   52.3590 C.3     1  ZINC000435292384    0.1200
      9 C9         -6.9392    0.9938   52.3188 C.3     1  ZINC000435292384   -0.1300
     10 H10        -6.2949    1.4188   53.0884 H       1  ZINC000435292384    0.1100
     11 C11        -6.3168    1.1445   50.9546 C.2     1  ZINC000435292384    0.5200
     12 O12        -6.1755    0.1734   50.2421 O.2     1  ZINC000435292384   -0.5200
     13 N13        -5.9172    2.3584   50.5266 N.am    1  ZINC000435292384   -0.6000
     14 C14        -6.1034    3.5197   51.4184 C.3     1  ZINC000435292384    0.1000
     15 C15        -4.8808    4.4552   51.4158 C.3     1  ZINC000435292384   -0.1300
     16 C16        -3.6080    3.6448   51.4100 C.3     1  ZINC000435292384   -0.1100
     17 C17        -3.1610    3.4158   49.9694 C.3     1  ZINC000435292384   -0.1200
     18 C18        -3.7926    2.2594   49.3156 C.3     1  ZINC000435292384   -0.0700
     19 H19        -3.5898    1.3605   49.8979 H       1  ZINC000435292384    0.0900
     20 S20        -3.1048    2.0626   47.6486 S.3     1  ZINC000435292384   -0.2500
     21 C21        -1.5113    1.2526   47.9577 C.3     1  ZINC000435292384   -0.1200
     22 C22        -5.3185    2.4683   49.2152 C.3     1  ZINC000435292384    0.1400
     23 C23        -7.2591   -0.4884   52.6215 C.3     1  ZINC000435292384   -0.1400
     24 C24        -8.5610   -0.4359   53.3902 C.2     1  ZINC000435292384    0.5200
     25 O25        -9.0136   -1.3453   54.0527 O.2     1  ZINC000435292384   -0.5200
     26 H26       -13.1205    0.4015   50.1335 H       1  ZINC000435292384    0.0500
     27 H27       -13.5895    1.7285   51.2231 H       1  ZINC000435292384    0.0500
     28 H28       -12.1633    1.9017   50.1722 H       1  ZINC000435292384    0.0500
     29 H29       -12.4500   -0.0866   52.4704 H       1  ZINC000435292384    0.0600
     30 H30       -11.0238    0.0866   51.4195 H       1  ZINC000435292384    0.0600
     31 H31       -10.7874    2.4543   52.1616 H       1  ZINC000435292384    0.0800
     32 H32       -12.1825    2.2400   53.2460 H       1  ZINC000435292384    0.0800
     33 H33        -9.6946    3.0763   54.4757 H       1  ZINC000435292384    0.0700
     34 H34       -11.1132    2.4895   55.3764 H       1  ZINC000435292384    0.0700
     35 H35        -9.5088    1.7828   55.6841 H       1  ZINC000435292384    0.0600
     36 H36        -8.7727    1.6673   51.3572 H       1  ZINC000435292384    0.0900
     37 H37        -8.2900    2.6378   52.7803 H       1  ZINC000435292384    0.0800
     38 H38        -6.9788    4.0806   51.0911 H       1  ZINC000435292384    0.0700
     39 H39        -6.2735    3.1624   52.4340 H       1  ZINC000435292384    0.0900
     40 H40        -4.9110    5.0872   50.5282 H       1  ZINC000435292384    0.0700
     41 H41        -4.9049    5.0840   52.3059 H       1  ZINC000435292384    0.0800
     42 H42        -2.8306    4.1849   51.9506 H       1  ZINC000435292384    0.0700
     43 H43        -3.7865    2.6839   51.8926 H       1  ZINC000435292384    0.0600
     44 H44        -3.3911    4.3096   49.3894 H       1  ZINC000435292384    0.0800
     45 H45        -2.0808    3.2707   49.9611 H       1  ZINC000435292384    0.0600
     46 H46        -0.8963    1.8910   48.5919 H       1  ZINC000435292384    0.0800
     47 H47        -1.6795    0.2983   48.4568 H       1  ZINC000435292384    0.0800
     48 H48        -1.0007    1.0819   47.0099 H       1  ZINC000435292384    0.1000
     49 H49        -5.7463    1.7106   48.5587 H       1  ZINC000435292384    0.0900
     50 H50        -5.5233    3.4584   48.8077 H       1  ZINC000435292384    0.0900
     51 H51        -7.3812   -1.0493   51.6948 H       1  ZINC000435292384    0.1100
     52 H52        -6.4743   -0.9304   53.2354 H       1  ZINC000435292384    0.1100
@<TRIPOS>BOND
     1     1     2    1
     2     1    26    1
     3     1    27    1
     4     1    28    1
     5     2     3    1
     6     2    29    1
     7     2    30    1
     8     3     4    1
     9     3    31    1
    10     3    32    1
    11     4     5    1
    12     4     6    1
    13     4     7    1
    14     6    33    1
    15     6    34    1
    16     6    35    1
    17     7    24   am
    18     7     8    1
    19     8     9    1
    20     8    36    1
    21     8    37    1
    22     9    10    1
    23     9    11    1
    24     9    23    1
    25    11    12    2
    26    11    13   am
    27    13    22    1
    28    13    14    1
    29    14    15    1
    30    14    38    1
    31    14    39    1
    32    15    16    1
    33    15    40    1
    34    15    41    1
    35    16    17    1
    36    16    42    1
    37    16    43    1
    38    17    18    1
    39    17    44    1
    40    17    45    1
    41    18    19    1
    42    18    20    1
    43    18    22    1
    44    20    21    1
    45    21    46    1
    46    21    47    1
    47    21    48    1
    48    22    49    1
    49    22    50    1
    50    23    24    1
    51    23    51    1
    52    23    52    1
    53    24    25    2
@<TRIPOS>SUBSTRUCTURE
     1 ZINC000435292384        1 TEMP              0 ****  ****    0 ROOT


##########                                Name:    ZINC000915315870
##########                DOCK_Rotatable_Bonds:                   4
##########                         Heavy_Atoms:                  24
##########                    Molecular_Weight:             357.381
##########                DOCK_Rotatable_Bonds:                   4
##########                       Formal_Charge:           0.0300002
##########                     HBond_Acceptors:                   9
##########                        HBond_Donors:                   1
##########                         Heavy_Atoms:                  24
##########                          Grid_Score:          -26.370735
##########                     Grid_vdw_energy:          -24.925686
##########                      Grid_es_energy:           -1.445049
##########           Internal_energy_repulsive:           35.236393

@<TRIPOS>MOLECULE
ZINC000915315870
 41 43 1 0 0
SMALL
USER_CHARGES


@<TRIPOS>ATOM
      1 C1          4.0901    4.5287   44.7672 C.3     1  ZINC000915315870    0.0300
      2 O2          4.0494    3.1497   45.1401 O.3     1  ZINC000915315870   -0.3200
      3 C3          2.8206    2.5806   45.2669 C.ar    1  ZINC000915315870    0.0800
      4 C4          1.6778    3.3326   45.0305 C.ar    1  ZINC000915315870    0.0900
      5 F5          1.7848    4.6312   44.6734 F       1  ZINC000915315870   -0.1100
      6 C6          0.4291    2.7507   45.1604 C.ar    1  ZINC000915315870   -0.0500
      7 C7          0.3188    1.4219   45.5258 C.ar    1  ZINC000915315870   -0.6300
      8 S8         -1.2730    0.6847   45.6908 S.o2    1  ZINC000915315870    2.7000
      9 O9         -2.1900    1.5625   45.0520 O.2     1  ZINC000915315870   -0.9400
     10 O10        -1.1224   -0.6807   45.3271 O.2     1  ZINC000915315870   -0.9400
     11 N11        -1.6558    0.7001   47.3018 N.am    1  ZINC000915315870   -1.1100
     12 C12        -1.7397    1.9728   48.0226 C.3     1  ZINC000915315870    0.2400
     13 H13        -1.2989    2.7666   47.4197 H       1  ZINC000915315870    0.0900
     14 C14        -3.2078    2.3033   48.3200 C.3     1  ZINC000915315870   -0.1400
     15 C15        -3.2852    3.4954   49.2763 C.3     1  ZINC000915315870   -0.1100
     16 C16        -2.8357    3.0652   50.6782 C.3     1  ZINC000915315870   -0.0400
     17 C17        -1.5077    2.3590   50.5516 C.2     1  ZINC000915315870    0.0900
     18 N18        -0.6407    2.0984   51.4863 N.2     1  ZINC000915315870   -0.2900
     19 N19         0.4449    1.4295   50.9008 N.pl3   1  ZINC000915315870   -0.3800
     20 C20         1.6419    0.9542   51.5991 C.3     1  ZINC000915315870    0.1000
     21 C21         0.1918    1.2999   49.5790 C.2     1  ZINC000915315870    0.0800
     22 C22        -1.0052    1.8633   49.3361 C.2     1  ZINC000915315870   -0.2500
     23 C23         1.4549    0.6702   45.7615 C.ar    1  ZINC000915315870   -0.0500
     24 C24         2.7066    1.2447   45.6277 C.ar    1  ZINC000915315870    0.1000
     25 F25         3.8163    0.5095   45.8581 F       1  ZINC000915315870   -0.1100
     26 H26         5.1276    4.8566   44.7014 H       1  ZINC000915315870    0.1100
     27 H27         3.6063    4.6576   43.7990 H       1  ZINC000915315870    0.0600
     28 H28         3.5679    5.1234   45.5165 H       1  ZINC000915315870    0.0500
     29 H29        -0.4602    3.3352   44.9766 H       1  ZINC000915315870    0.1700
     30 H30        -1.8244   -0.1335   47.7683 H       1  ZINC000915315870    0.4200
     31 H31        -3.7193    2.5507   47.3898 H       1  ZINC000915315870    0.0900
     32 H32        -3.6884    1.4389   48.7783 H       1  ZINC000915315870    0.0800
     33 H33        -2.6347    4.2922   48.9157 H       1  ZINC000915315870    0.0700
     34 H34        -4.3119    3.8587   49.3204 H       1  ZINC000915315870    0.0800
     35 H35        -2.7261    3.9432   51.3147 H       1  ZINC000915315870    0.0800
     36 H36        -3.5729    2.3876   51.1089 H       1  ZINC000915315870    0.0900
     37 H37         1.4780   -0.0650   51.9485 H       1  ZINC000915315870    0.0800
     38 H38         2.4917    0.9722   50.9167 H       1  ZINC000915315870    0.0900
     39 H39         1.8465    1.6021   52.4514 H       1  ZINC000915315870    0.0900
     40 H40         0.8346    0.8293   48.8497 H       1  ZINC000915315870    0.1700
     41 H41         1.3655   -0.3677   46.0464 H       1  ZINC000915315870    0.1700
@<TRIPOS>BOND
     1     1     2    1
     2     1    26    1
     3     1    27    1
     4     1    28    1
     5     2     3    1
     6     3    24   ar
     7     3     4   ar
     8     4     5    1
     9     4     6   ar
    10     6     7   ar
    11     6    29    1
    12     7     8    1
    13     7    23   ar
    14     8     9    2
    15     8    10    2
    16     8    11   am
    17    11    12    1
    18    11    30    1
    19    12    13    1
    20    12    22    1
    21    12    14    1
    22    14    15    1
    23    14    31    1
    24    14    32    1
    25    15    16    1
    26    15    33    1
    27    15    34    1
    28    16    17    1
    29    16    35    1
    30    16    36    1
    31    17    22    1
    32    17    18    2
    33    18    19    1
    34    19    20    1
    35    19    21    1
    36    20    37    1
    37    20    38    1
    38    20    39    1
    39    21    22    2
    40    21    40    1
    41    23    24   ar
    42    23    41    1
    43    24    25    1
@<TRIPOS>SUBSTRUCTURE
     1 ZINC000915315870        1 TEMP              0 ****  ****    0 ROOT


##########                                Name:    ZINC001211202056
##########                DOCK_Rotatable_Bonds:                   4
##########                         Heavy_Atoms:                  23
##########                    Molecular_Weight:             386.181
##########                DOCK_Rotatable_Bonds:                   4
##########                       Formal_Charge:           0.0199999
##########                     HBond_Acceptors:                  11
##########                        HBond_Donors:                   3
##########                         Heavy_Atoms:                  23
##########                          Grid_Score:          -26.368793
##########                     Grid_vdw_energy:          -24.088093
##########                      Grid_es_energy:           -2.280701
##########           Internal_energy_repulsive:           14.090283

@<TRIPOS>MOLECULE
ZINC001211202056
 31 32 1 0 0
SMALL
USER_CHARGES


@<TRIPOS>ATOM
      1 N1         -8.7894    2.0958   64.9403 N.pl3   1  ZINC001211202056   -0.8500
      2 C2         -8.7660    1.6336   63.6216 C.ar    1  ZINC001211202056    0.2900
      3 C3         -9.0992    2.4877   62.5790 C.ar    1  ZINC001211202056   -0.2000
      4 C4         -9.0753    2.0276   61.2765 C.ar    1  ZINC001211202056    0.0400
      5 C5         -8.7204    0.7183   61.0101 C.ar    1  ZINC001211202056   -0.7300
      6 S6         -8.6913    0.1364   59.3472 S.o2    1  ZINC001211202056    2.6900
      7 O7         -9.5912    0.9599   58.6181 O.2     1  ZINC001211202056   -0.9400
      8 O8         -7.3221   -0.0164   58.9995 O.2     1  ZINC001211202056   -0.9300
      9 N9         -9.3460   -1.3846   59.3487 N.am    1  ZINC001211202056   -1.0500
     10 C10       -10.6586   -1.5802   59.7875 C.ar    1  ZINC001211202056    0.1600
     11 C11       -11.3787   -0.5309   60.3511 C.ar    1  ZINC001211202056   -0.1200
     12 C12       -12.6771   -0.7737   60.7709 C.ar    1  ZINC001211202056   -0.0800
     13 C13       -13.2110   -2.0389   60.6180 C.ar    1  ZINC001211202056    0.0400
     14 C14       -14.6222   -2.3094   61.0725 C.3     1  ZINC001211202056    0.5300
     15 F15       -14.8428   -1.6855   62.3051 F       1  ZINC001211202056   -0.1700
     16 F16       -15.5214   -1.8050   60.1269 F       1  ZINC001211202056   -0.1600
     17 F17       -14.8124   -3.6888   61.2073 F       1  ZINC001211202056   -0.1700
     18 N18       -12.5033   -3.0134   60.0796 N.ar    1  ZINC001211202056   -0.4100
     19 C19       -11.2667   -2.8248   59.6624 C.ar    1  ZINC001211202056    0.1600
     20 Cl20      -10.3850   -4.1458   58.9614 Cl      1  ZINC001211202056    0.0000
     21 C21        -8.3878   -0.1359   62.0459 C.ar    1  ZINC001211202056    0.0400
     22 C22        -8.4037    0.3191   63.3504 C.ar    1  ZINC001211202056   -0.1400
     23 Cl23       -7.9861   -0.7534   64.6502 Cl      1  ZINC001211202056   -0.0500
     24 H24        -8.5526    1.4993   65.6677 H       1  ZINC001211202056    0.4100
     25 H25        -9.0386    3.0143   65.1280 H       1  ZINC001211202056    0.4100
     26 H26        -9.3773    3.5105   62.7859 H       1  ZINC001211202056    0.1400
     27 H27        -9.3344    2.6918   60.4651 H       1  ZINC001211202056    0.1500
     28 H28        -8.8185   -2.1399   59.0449 H       1  ZINC001211202056    0.4400
     29 H29       -10.9364    0.4485   60.4588 H       1  ZINC001211202056    0.2000
     30 H30       -13.2649    0.0172   61.2129 H       1  ZINC001211202056    0.1700
     31 H31        -8.1110   -1.1582   61.8344 H       1  ZINC001211202056    0.1500
@<TRIPOS>BOND
     1     1     2    1
     2     1    24    1
     3     1    25    1
     4     2    22   ar
     5     2     3   ar
     6     3     4   ar
     7     3    26    1
     8     4     5   ar
     9     4    27    1
    10     5     6    1
    11     5    21   ar
    12     6     7    2
    13     6     8    2
    14     6     9   am
    15     9    10    1
    16     9    28    1
    17    10    19   ar
    18    10    11   ar
    19    11    12   ar
    20    11    29    1
    21    12    13   ar
    22    12    30    1
    23    13    14    1
    24    13    18   ar
    25    14    15    1
    26    14    16    1
    27    14    17    1
    28    18    19   ar
    29    19    20    1
    30    21    22   ar
    31    21    31    1
    32    22    23    1
@<TRIPOS>SUBSTRUCTURE
     1 ZINC001211202056        1 TEMP              0 ****  ****    0 ROOT


##########                                Name:    ZINC000966038509
##########                DOCK_Rotatable_Bonds:                   5
##########                         Heavy_Atoms:                  25
##########                    Molecular_Weight:             346.445
##########                DOCK_Rotatable_Bonds:                   5
##########                       Formal_Charge:           0.0299998
##########                     HBond_Acceptors:                   5
##########                        HBond_Donors:                   1
##########                         Heavy_Atoms:                  25
##########                          Grid_Score:          -26.366686
##########                     Grid_vdw_energy:          -26.089312
##########                      Grid_es_energy:           -0.277374
##########           Internal_energy_repulsive:           15.913980

@<TRIPOS>MOLECULE
ZINC000966038509
 52 54 1 0 0
SMALL
USER_CHARGES


@<TRIPOS>ATOM
      1 C1         -6.5658    2.6666   54.5548 C.3     1  ZINC000966038509   -0.1200
      2 C2         -7.0007    1.5563   53.6332 C.ar    1  ZINC000966038509   -0.0100
      3 C3         -6.2090    1.1967   52.5638 C.ar    1  ZINC000966038509   -0.1600
      4 C4         -6.6082    0.1758   51.7148 C.ar    1  ZINC000966038509    0.1300
      5 F5         -5.8287   -0.1724   50.6678 F       1  ZINC000966038509   -0.1300
      6 C6         -7.8042   -0.4895   51.9369 C.ar    1  ZINC000966038509   -0.1600
      7 C7         -8.6036   -0.1380   53.0034 C.ar    1  ZINC000966038509   -0.0100
      8 C8         -9.9036   -0.8616   53.2431 C.3     1  ZINC000966038509   -0.1200
      9 C9         -8.2038    0.8860   53.8646 C.ar    1  ZINC000966038509   -0.1500
     10 C10        -9.0563    1.2671   55.0092 C.2     1  ZINC000966038509    0.5700
     11 O11        -9.9821    2.0382   54.8475 O.2     1  ZINC000966038509   -0.5200
     12 N12        -8.8079    0.7598   56.2330 N.am    1  ZINC000966038509   -0.7100
     13 C13        -9.6544    1.1364   57.3677 C.3     1  ZINC000966038509    0.1300
     14 H14       -10.1244    2.1050   57.1974 H       1  ZINC000966038509    0.1200
     15 C15       -10.7172    0.0461   57.6535 C.3     1  ZINC000966038509    0.0900
     16 N16       -10.0038   -0.9809   58.4343 N.am    1  ZINC000966038509   -0.6200
     17 C17       -10.3476   -2.2812   58.5212 C.2     1  ZINC000966038509    0.5400
     18 O18        -9.6843   -3.0400   59.1958 O.2     1  ZINC000966038509   -0.5300
     19 C19       -11.5563   -2.7920   57.7803 C.3     1  ZINC000966038509   -0.1100
     20 C20       -11.4978   -4.3339   57.6452 C.3     1  ZINC000966038509   -0.1100
     21 C21       -12.9860   -4.7169   57.4519 C.3     1  ZINC000966038509   -0.1200
     22 C22       -13.7485   -3.7561   58.3875 C.3     1  ZINC000966038509   -0.1200
     23 C23       -12.8395   -2.5322   58.5963 C.3     1  ZINC000966038509   -0.1100
     24 C24        -8.8547   -0.3519   59.1018 C.3     1  ZINC000966038509    0.1000
     25 C25        -8.8436    1.1366   58.6906 C.3     1  ZINC000966038509   -0.1100
     26 H26        -9.3368    1.7489   59.4455 H       1  ZINC000966038509    0.1000
     27 C27        -7.4122    1.6220   58.4533 C.3     1  ZINC000966038509   -0.1400
     28 H28        -5.9676    2.2520   55.3662 H       1  ZINC000966038509    0.0800
     29 H29        -5.9705    3.3895   53.9970 H       1  ZINC000966038509    0.0800
     30 H30        -7.4450    3.1614   54.9676 H       1  ZINC000966038509    0.0700
     31 H31        -5.2763    1.7115   52.3865 H       1  ZINC000966038509    0.1400
     32 H32        -8.1104   -1.2843   51.2728 H       1  ZINC000966038509    0.1400
     33 H33        -9.7277   -1.7190   53.8927 H       1  ZINC000966038509    0.0800
     34 H34       -10.6137   -0.1850   53.7187 H       1  ZINC000966038509    0.0700
     35 H35       -10.3097   -1.2041   52.2913 H       1  ZINC000966038509    0.0800
     36 H36        -8.0685    0.1456   56.3623 H       1  ZINC000966038509    0.4000
     37 H37       -11.5399    0.4616   58.2353 H       1  ZINC000966038509    0.0800
     38 H38       -11.0875   -0.3766   56.7196 H       1  ZINC000966038509    0.0800
     39 H39       -11.6271   -2.3235   56.7986 H       1  ZINC000966038509    0.0900
     40 H40       -10.9082   -4.6234   56.7752 H       1  ZINC000966038509    0.0700
     41 H41       -11.0971   -4.7862   58.5524 H       1  ZINC000966038509    0.0700
     42 H42       -13.2887   -4.5612   56.4164 H       1  ZINC000966038509    0.0700
     43 H43       -13.1551   -5.7521   57.7482 H       1  ZINC000966038509    0.0700
     44 H44       -14.6865   -3.4499   57.9243 H       1  ZINC000966038509    0.0700
     45 H45       -13.9448   -4.2427   59.3429 H       1  ZINC000966038509    0.0700
     46 H46       -12.5946   -2.4249   59.6530 H       1  ZINC000966038509    0.0800
     47 H47       -13.3362   -1.6321   58.2344 H       1  ZINC000966038509    0.0700
     48 H48        -8.9620   -0.4368   60.1831 H       1  ZINC000966038509    0.0800
     49 H49        -7.9306   -0.8321   58.7800 H       1  ZINC000966038509    0.0700
     50 H50        -6.9476    1.0165   57.6751 H       1  ZINC000966038509    0.0600
     51 H51        -7.4298    2.6658   58.1396 H       1  ZINC000966038509    0.0700
     52 H52        -6.8395    1.5295   59.3761 H       1  ZINC000966038509    0.0700
@<TRIPOS>BOND
     1     1     2    1
     2     1    28    1
     3     1    29    1
     4     1    30    1
     5     2     9   ar
     6     2     3   ar
     7     3     4   ar
     8     3    31    1
     9     4     5    1
    10     4     6   ar
    11     6     7   ar
    12     6    32    1
    13     7     8    1
    14     7     9   ar
    15     8    33    1
    16     8    34    1
    17     8    35    1
    18     9    10    1
    19    10    11    2
    20    10    12   am
    21    12    13    1
    22    12    36    1
    23    13    14    1
    24    13    25    1
    25    13    15    1
    26    15    16    1
    27    15    37    1
    28    15    38    1
    29    16    17   am
    30    16    24    1
    31    17    18    2
    32    17    19    1
    33    19    23    1
    34    19    20    1
    35    19    39    1
    36    20    21    1
    37    20    40    1
    38    20    41    1
    39    21    22    1
    40    21    42    1
    41    21    43    1
    42    22    23    1
    43    22    44    1
    44    22    45    1
    45    23    46    1
    46    23    47    1
    47    24    25    1
    48    24    48    1
    49    24    49    1
    50    25    26    1
    51    25    27    1
    52    27    50    1
    53    27    51    1
    54    27    52    1
@<TRIPOS>SUBSTRUCTURE
     1 ZINC000966038509        1 TEMP              0 ****  ****    0 ROOT


##########                                Name:    ZINC000341804698
##########                DOCK_Rotatable_Bonds:                   7
##########                         Heavy_Atoms:                  24
##########                    Molecular_Weight:             342.318
##########                DOCK_Rotatable_Bonds:                   7
##########                       Formal_Charge:                0.02
##########                     HBond_Acceptors:                   8
##########                        HBond_Donors:                   0
##########                         Heavy_Atoms:                  24
##########                          Grid_Score:          -26.351240
##########                     Grid_vdw_energy:          -25.166142
##########                      Grid_es_energy:           -1.185099
##########           Internal_energy_repulsive:           27.683241

@<TRIPOS>MOLECULE
ZINC000341804698
 41 42 1 0 0
SMALL
USER_CHARGES


@<TRIPOS>ATOM
      1 C1          1.3932    1.7330   47.6598 C.3     1  ZINC000341804698    0.0300
      2 O2         -0.0281    1.8801   47.6842 O.3     1  ZINC000341804698   -0.3900
      3 C3         -0.6797    1.0683   48.6632 C.3     1  ZINC000341804698    0.0700
      4 C4         -1.8309    1.8547   49.2934 C.3     1  ZINC000341804698    0.0400
      5 C5         -1.3119    3.1046   49.8725 C.1     1  ZINC000341804698    0.2200
      6 N6         -0.9114    4.0691   50.3193 N.1     1  ZINC000341804698   -0.4200
      7 C7         -2.8713    2.1836   48.2204 C.3     1  ZINC000341804698   -0.1200
      8 C8         -4.0053    3.0005   48.8477 C.3     1  ZINC000341804698    0.1100
      9 N9         -4.5395    2.2613   49.9996 N.am    1  ZINC000341804698   -0.6000
     10 C10        -5.8573    1.9952   50.0935 C.2     1  ZINC000341804698    0.5700
     11 O11        -6.6163    2.3678   49.2202 O.2     1  ZINC000341804698   -0.5200
     12 C12        -6.3799    1.2503   51.2588 C.ar    1  ZINC000341804698   -0.0900
     13 C13        -6.7375   -0.0925   51.1287 C.ar    1  ZINC000341804698   -0.1100
     14 C14        -7.2251   -0.7848   52.2184 C.ar    1  ZINC000341804698   -0.0800
     15 C15        -7.3609   -0.1525   53.4402 C.ar    1  ZINC000341804698   -0.1700
     16 C16        -7.0083    1.1833   53.5793 C.ar    1  ZINC000341804698    0.1100
     17 O17        -7.1442    1.8001   54.7827 O.3     1  ZINC000341804698   -0.3100
     18 C18        -6.7311    3.1658   54.8620 C.3     1  ZINC000341804698    0.6000
     19 F19        -5.3720    3.2611   54.5444 F       1  ZINC000341804698   -0.1600
     20 F20        -7.4760    3.9315   53.9588 F       1  ZINC000341804698   -0.1300
     21 F21        -6.9409    3.6417   56.1607 F       1  ZINC000341804698   -0.1600
     22 C22        -6.5122    1.8856   52.4941 C.ar    1  ZINC000341804698   -0.0700
     23 C23        -3.6096    1.8172   51.0469 C.3     1  ZINC000341804698    0.0900
     24 C24        -2.4801    1.0135   50.3949 C.3     1  ZINC000341804698   -0.1200
     25 H25         1.8037    2.0086   48.6312 H       1  ZINC000341804698    0.0400
     26 H26         1.6474    0.6963   47.4389 H       1  ZINC000341804698    0.0500
     27 H27         1.8124    2.3817   46.8908 H       1  ZINC000341804698    0.0900
     28 H28        -1.0714    0.1693   48.1873 H       1  ZINC000341804698    0.0700
     29 H29         0.0352    0.7878   49.4368 H       1  ZINC000341804698    0.0600
     30 H30        -2.4026    2.7628   47.4248 H       1  ZINC000341804698    0.1000
     31 H31        -3.2742    1.2583   47.8085 H       1  ZINC000341804698    0.0900
     32 H32        -3.6207    3.9652   49.1790 H       1  ZINC000341804698    0.0700
     33 H33        -4.7957    3.1528   48.1128 H       1  ZINC000341804698    0.1100
     34 H34        -6.6330   -0.5895   50.1755 H       1  ZINC000341804698    0.1400
     35 H35        -7.5017   -1.8238   52.1163 H       1  ZINC000341804698    0.1400
     36 H36        -7.7430   -0.6992   54.2895 H       1  ZINC000341804698    0.1400
     37 H37        -6.2371    2.9244   52.6009 H       1  ZINC000341804698    0.1500
     38 H38        -3.1928    2.6853   51.5576 H       1  ZINC000341804698    0.0800
     39 H39        -4.1389    1.1887   51.7630 H       1  ZINC000341804698    0.1100
     40 H40        -2.8867    0.0993   49.9625 H       1  ZINC000341804698    0.1000
     41 H41        -1.7329    0.7599   51.1471 H       1  ZINC000341804698    0.0900
@<TRIPOS>BOND
     1     1     2    1
     2     1    25    1
     3     1    26    1
     4     1    27    1
     5     2     3    1
     6     3     4    1
     7     3    28    1
     8     3    29    1
     9     4    24    1
    10     4     5    1
    11     4     7    1
    12     5     6    3
    13     7     8    1
    14     7    30    1
    15     7    31    1
    16     8     9    1
    17     8    32    1
    18     8    33    1
    19     9    10   am
    20     9    23    1
    21    10    11    2
    22    10    12    1
    23    12    22   ar
    24    12    13   ar
    25    13    14   ar
    26    13    34    1
    27    14    15   ar
    28    14    35    1
    29    15    16   ar
    30    15    36    1
    31    16    17    1
    32    16    22   ar
    33    17    18    1
    34    18    19    1
    35    18    20    1
    36    18    21    1
    37    22    37    1
    38    23    24    1
    39    23    38    1
    40    23    39    1
    41    24    40    1
    42    24    41    1
@<TRIPOS>SUBSTRUCTURE
     1 ZINC000341804698        1 TEMP              0 ****  ****    0 ROOT


##########                                Name:    ZINC000626935317
##########                DOCK_Rotatable_Bonds:                   6
##########                         Heavy_Atoms:                  25
##########                    Molecular_Weight:             366.441
##########                DOCK_Rotatable_Bonds:                   6
##########                       Formal_Charge:          -0.0200006
##########                     HBond_Acceptors:                   9
##########                        HBond_Donors:                   2
##########                         Heavy_Atoms:                  25
##########                          Grid_Score:          -26.338785
##########                     Grid_vdw_energy:          -25.937639
##########                      Grid_es_energy:           -0.401147
##########           Internal_energy_repulsive:           10.287696

@<TRIPOS>MOLECULE
ZINC000626935317
 47 49 1 0 0
SMALL
USER_CHARGES


@<TRIPOS>ATOM
      1 C1        -12.2395   -3.5125   57.0984 C.3     1  ZINC000626935317    0.0900
      2 N2        -13.2252   -3.2954   58.1604 N.am    1  ZINC000626935317   -0.6200
      3 C3        -14.2239   -4.1459   58.4536 C.2     1  ZINC000626935317    0.5200
      4 O4        -14.4388   -5.1905   57.8760 O.2     1  ZINC000626935317   -0.5200
      5 C5        -15.0408   -3.6107   59.6090 C.3     1  ZINC000626935317   -0.1500
      6 C6        -14.1408   -2.5213   60.2369 C.3     1  ZINC000626935317   -0.1200
      7 H7        -13.5419   -2.9311   61.0502 H       1  ZINC000626935317    0.1200
      8 C8        -14.9627   -1.3511   60.7127 C.2     1  ZINC000626935317    0.5300
      9 O9        -15.8310   -0.8909   60.0019 O.2     1  ZINC000626935317   -0.5200
     10 N10       -14.7327   -0.8159   61.9281 N.am    1  ZINC000626935317   -0.7100
     11 C11       -15.5305    0.3228   62.3899 C.3     1  ZINC000626935317    0.1200
     12 C12       -15.4090    0.5882   63.8997 C.3     1  ZINC000626935317   -0.1600
     13 C13       -14.2124    1.4941   63.5646 C.3     1  ZINC000626935317    0.1200
     14 N14       -12.9304    0.7858   63.5344 N.am    1  ZINC000626935317   -1.1100
     15 S15       -11.5295    1.5936   63.8914 S.o2    1  ZINC000626935317    2.6100
     16 C16       -11.7708    2.1901   65.5875 C.3     1  ZINC000626935317   -0.6700
     17 O17       -10.5260    0.5882   63.8545 O.2     1  ZINC000626935317   -0.9500
     18 O18       -11.5101    2.6820   62.9781 O.2     1  ZINC000626935317   -0.9500
     19 C19       -14.8449    1.6826   62.1755 C.3     1  ZINC000626935317   -0.1600
     20 C20       -13.2451   -2.1244   59.0448 C.3     1  ZINC000626935317    0.2000
     21 H21       -13.6725   -1.2701   58.5198 H       1  ZINC000626935317    0.1100
     22 C22       -11.8539   -1.7986   59.5236 C.ar    1  ZINC000626935317   -0.1600
     23 C23       -11.3257   -0.5307   59.3353 C.ar    1  ZINC000626935317   -0.0500
     24 C24       -10.0415   -0.2762   59.7926 C.ar    1  ZINC000626935317   -0.1700
     25 C25        -9.3361   -1.2874   60.4164 C.ar    1  ZINC000626935317    0.1000
     26 N26        -9.8705   -2.4822   60.5784 N.ar    1  ZINC000626935317   -0.4800
     27 C27       -11.0904   -2.7584   60.1611 C.ar    1  ZINC000626935317    0.1200
     28 H28       -11.3864   -4.0588   57.5006 H       1  ZINC000626935317    0.0600
     29 H29       -12.6940   -4.0901   56.2934 H       1  ZINC000626935317    0.0800
     30 H30       -11.9050   -2.5502   56.7109 H       1  ZINC000626935317    0.0700
     31 H31       -15.9722   -3.1747   59.2480 H       1  ZINC000626935317    0.1100
     32 H32       -15.2433   -4.4012   60.3315 H       1  ZINC000626935317    0.1200
     33 H33       -14.0391   -1.1847   62.4971 H       1  ZINC000626935317    0.4000
     34 H34       -16.5596    0.2915   62.0322 H       1  ZINC000626935317    0.1100
     35 H35       -16.2598    1.1257   64.3184 H       1  ZINC000626935317    0.1100
     36 H36       -15.1391   -0.2955   64.4781 H       1  ZINC000626935317    0.0800
     37 H37       -14.1772    2.4081   64.1574 H       1  ZINC000626935317    0.1100
     38 H38       -12.9020   -0.1564   63.3052 H       1  ZINC000626935317    0.4100
     39 H39       -11.9315    1.3411   66.2519 H       1  ZINC000626935317    0.1300
     40 H40       -10.8862    2.7402   65.9085 H       1  ZINC000626935317    0.1300
     41 H41       -12.6395    2.8476   65.6213 H       1  ZINC000626935317    0.1300
     42 H42       -14.1196    1.6824   61.3618 H       1  ZINC000626935317    0.0900
     43 H43       -15.5415    2.5192   62.1228 H       1  ZINC000626935317    0.1100
     44 H44       -11.9004    0.2401   58.8438 H       1  ZINC000626935317    0.1400
     45 H45        -9.5982    0.7001   59.6627 H       1  ZINC000626935317    0.1400
     46 H46        -8.3353   -1.0974   60.7751 H       1  ZINC000626935317    0.1600
     47 H47       -11.4945   -3.7486   60.3114 H       1  ZINC000626935317    0.1500
@<TRIPOS>BOND
     1     1     2    1
     2     1    28    1
     3     1    29    1
     4     1    30    1
     5     2    20    1
     6     2     3   am
     7     3     4    2
     8     3     5    1
     9     5     6    1
    10     5    31    1
    11     5    32    1
    12     6     7    1
    13     6     8    1
    14     6    20    1
    15     8     9    2
    16     8    10   am
    17    10    11    1
    18    10    33    1
    19    11    19    1
    20    11    12    1
    21    11    34    1
    22    12    13    1
    23    12    35    1
    24    12    36    1
    25    13    14    1
    26    13    19    1
    27    13    37    1
    28    14    15   am
    29    14    38    1
    30    15    16    1
    31    15    17    2
    32    15    18    2
    33    16    39    1
    34    16    40    1
    35    16    41    1
    36    19    42    1
    37    19    43    1
    38    20    21    1
    39    20    22    1
    40    22    27   ar
    41    22    23   ar
    42    23    24   ar
    43    23    44    1
    44    24    25   ar
    45    24    45    1
    46    25    26   ar
    47    25    46    1
    48    26    27   ar
    49    27    47    1
@<TRIPOS>SUBSTRUCTURE
     1 ZINC000626935317        1 TEMP              0 ****  ****    0 ROOT


##########                                Name:    ZINC000302023461
##########                DOCK_Rotatable_Bonds:                   3
##########                         Heavy_Atoms:                  25
##########                    Molecular_Weight:             356.362
##########                DOCK_Rotatable_Bonds:                   3
##########                       Formal_Charge:        -2.08616e-07
##########                     HBond_Acceptors:                   9
##########                        HBond_Donors:                   1
##########                         Heavy_Atoms:                  25
##########                          Grid_Score:          -26.329536
##########                     Grid_vdw_energy:          -26.263435
##########                      Grid_es_energy:           -0.066100
##########           Internal_energy_repulsive:           20.279818

@<TRIPOS>MOLECULE
ZINC000302023461
 37 40 1 0 0
SMALL
USER_CHARGES


@<TRIPOS>ATOM
      1 O1        -14.0966   -5.9535   57.5978 O.2     1  ZINC000302023461   -0.1600
      2 N2        -13.8562   -4.8781   57.0789 N.pl3   1  ZINC000302023461    0.0200
      3 O3        -13.4607   -4.8321   55.9278 O.2     1  ZINC000302023461   -0.1300
      4 C4        -14.0504   -3.6266   57.8455 C.ar    1  ZINC000302023461    0.0000
      5 C5        -14.4986   -3.6777   59.1503 C.ar    1  ZINC000302023461   -0.0600
      6 C6        -14.6804   -2.5089   59.8673 C.ar    1  ZINC000302023461   -0.0900
      7 C7        -14.4137   -1.2854   59.2805 C.ar    1  ZINC000302023461   -0.0800
      8 C8        -13.9651   -1.2266   57.9757 C.ar    1  ZINC000302023461   -0.0500
      9 C9        -13.7763   -2.3990   57.2542 C.ar    1  ZINC000302023461   -0.1100
     10 S10       -13.2036   -2.3289   55.5894 S.3     1  ZINC000302023461    0.1900
     11 C11       -11.6998   -1.4208   55.7255 C.2     1  ZINC000302023461    0.2100
     12 N12       -11.0978   -1.1072   56.8496 N.2     1  ZINC000302023461   -0.3200
     13 N13        -9.9411   -0.3878   56.5079 N.pl3   1  ZINC000302023461   -0.4700
     14 C14        -9.9229   -0.3136   55.1578 C.2     1  ZINC000302023461    0.3500
     15 C15        -8.8889    0.3526   54.3371 C.ar    1  ZINC000302023461   -0.0400
     16 C16        -8.2992    1.5367   54.7807 C.ar    1  ZINC000302023461   -0.0900
     17 C17        -7.3365    2.1569   54.0125 C.ar    1  ZINC000302023461   -0.1100
     18 C18        -6.9504    1.6078   52.7971 C.ar    1  ZINC000302023461    0.0800
     19 O19        -6.0046    2.2414   52.0515 O.3     1  ZINC000302023461   -0.3000
     20 C20        -5.3748    1.4725   51.0212 C.3     1  ZINC000302023461    0.0200
     21 C21        -6.4659    0.7216   50.2462 C.3     1  ZINC000302023461    0.0200
     22 O22        -7.1621   -0.1291   51.1635 O.3     1  ZINC000302023461   -0.3000
     23 C23        -7.5327    0.4249   52.3505 C.ar    1  ZINC000302023461    0.0500
     24 C24        -8.4961   -0.2041   53.1193 C.ar    1  ZINC000302023461   -0.0500
     25 N25       -10.9864   -0.9458   54.7023 N.2     1  ZINC000302023461   -0.5000
     26 H26       -14.7078   -4.6316   59.6116 H       1  ZINC000302023461    0.1600
     27 H27       -15.0317   -2.5518   60.8876 H       1  ZINC000302023461    0.1500
     28 H28       -14.5567   -0.3747   59.8433 H       1  ZINC000302023461    0.1500
     29 H29       -13.7576   -0.2707   57.5179 H       1  ZINC000302023461    0.1600
     30 H30        -9.2854   -0.0174   57.1192 H       1  ZINC000302023461    0.4400
     31 H31        -8.5969    1.9676   55.7253 H       1  ZINC000302023461    0.1300
     32 H32        -6.8812    3.0735   54.3576 H       1  ZINC000302023461    0.1500
     33 H33        -4.8345    2.1358   50.3459 H       1  ZINC000302023461    0.1300
     34 H34        -4.6827    0.7579   51.4670 H       1  ZINC000302023461    0.0800
     35 H35        -7.1621    1.4359   49.8065 H       1  ZINC000302023461    0.0800
     36 H36        -6.0102    0.1197   49.4599 H       1  ZINC000302023461    0.1300
     37 H37        -8.9467   -1.1232   52.7750 H       1  ZINC000302023461    0.1600
@<TRIPOS>BOND
     1     1     2    2
     2     2     3    2
     3     2     4    1
     4     4     9   ar
     5     4     5   ar
     6     5     6   ar
     7     5    26    1
     8     6     7   ar
     9     6    27    1
    10     7     8   ar
    11     7    28    1
    12     8     9   ar
    13     8    29    1
    14     9    10    1
    15    10    11    1
    16    11    25    1
    17    11    12    2
    18    12    13    1
    19    13    14    1
    20    13    30    1
    21    14    15    1
    22    14    25    2
    23    15    24   ar
    24    15    16   ar
    25    16    17   ar
    26    16    31    1
    27    17    18   ar
    28    17    32    1
    29    18    23   ar
    30    18    19    1
    31    19    20    1
    32    20    21    1
    33    20    33    1
    34    20    34    1
    35    21    22    1
    36    21    35    1
    37    21    36    1
    38    22    23    1
    39    23    24   ar
    40    24    37    1
@<TRIPOS>SUBSTRUCTURE
     1 ZINC000302023461        1 TEMP              0 ****  ****    0 ROOT


##########                                Name:    ZINC000455156110
##########                DOCK_Rotatable_Bonds:                   4
##########                         Heavy_Atoms:                  27
##########                    Molecular_Weight:             370.424
##########                DOCK_Rotatable_Bonds:                   4
##########                       Formal_Charge:           0.0100002
##########                     HBond_Acceptors:                   6
##########                        HBond_Donors:                   1
##########                         Heavy_Atoms:                  27
##########                          Grid_Score:          -26.282688
##########                     Grid_vdw_energy:          -26.701139
##########                      Grid_es_energy:            0.418452
##########           Internal_energy_repulsive:           26.503685

@<TRIPOS>MOLECULE
ZINC000455156110
 50 53 1 0 0
SMALL
USER_CHARGES


@<TRIPOS>ATOM
      1 C1         -7.1878    3.1018   49.6541 C.3     1  ZINC000455156110    0.0300
      2 O2         -6.9241    1.7403   49.9988 O.3     1  ZINC000455156110   -0.3100
      3 C3         -7.4561    1.2843   51.1648 C.ar    1  ZINC000455156110    0.0900
      4 C4         -8.2340    2.1238   51.9465 C.ar    1  ZINC000455156110   -0.1600
      5 C5         -8.7750    1.6614   53.1310 C.ar    1  ZINC000455156110   -0.0800
      6 C6         -9.6202    2.5754   53.9803 C.3     1  ZINC000455156110   -0.1100
      7 C7         -8.5405    0.3555   53.5386 C.ar    1  ZINC000455156110    0.1500
      8 N8         -9.0901   -0.1132   54.7395 N.am    1  ZINC000455156110   -0.6700
      9 C9        -10.2809   -0.7444   54.7344 C.2     1  ZINC000455156110    0.7200
     10 O10       -10.8783   -0.9073   53.6880 O.2     1  ZINC000455156110   -0.5500
     11 N11       -10.8095   -1.1952   55.8894 N.am    1  ZINC000455156110   -0.5600
     12 C12       -12.0899   -1.8999   56.0098 C.3     1  ZINC000455156110    0.1000
     13 C13       -12.2402   -2.1981   57.5065 C.3     1  ZINC000455156110   -0.0200
     14 C14       -13.4905   -1.5178   58.0591 C.3     1  ZINC000455156110   -0.1400
     15 C15       -14.7312   -2.1526   57.4230 C.3     1  ZINC000455156110    0.0600
     16 O16       -14.7251   -3.5595   57.6737 O.3     1  ZINC000455156110   -0.3800
     17 C17       -13.6033   -4.2488   57.1181 C.3     1  ZINC000455156110    0.0600
     18 C18       -12.3138   -3.7052   57.7412 C.3     1  ZINC000455156110   -0.1400
     19 C19       -11.0005   -1.6245   58.1456 C.ar    1  ZINC000455156110   -0.1300
     20 C20       -10.5861   -1.5920   59.4632 C.ar    1  ZINC000455156110   -0.0700
     21 C21        -9.3847   -0.9961   59.7998 C.ar    1  ZINC000455156110   -0.1400
     22 C22        -8.5967   -0.4315   58.8141 C.ar    1  ZINC000455156110   -0.0900
     23 C23        -9.0061   -0.4605   57.4978 C.ar    1  ZINC000455156110   -0.1300
     24 C24       -10.2145   -1.0650   57.1488 C.ar    1  ZINC000455156110    0.1600
     25 C25        -7.7618   -0.4866   52.7559 C.ar    1  ZINC000455156110   -0.1200
     26 C26        -7.2245   -0.0248   51.5689 C.ar    1  ZINC000455156110    0.0900
     27 F27        -6.4670   -0.8434   50.8063 F       1  ZINC000455156110   -0.1300
     28 H28        -6.7071    3.3358   48.7042 H       1  ZINC000455156110    0.1000
     29 H29        -8.2636    3.2518   49.5636 H       1  ZINC000455156110    0.0600
     30 H30        -6.7938    3.7563   50.4317 H       1  ZINC000455156110    0.0600
     31 H31        -8.4172    3.1399   51.6298 H       1  ZINC000455156110    0.1400
     32 H32       -10.6645    2.4871   53.6808 H       1  ZINC000455156110    0.0800
     33 H33        -9.5179    2.2948   55.0287 H       1  ZINC000455156110    0.0600
     34 H34        -9.2895    3.6052   53.8459 H       1  ZINC000455156110    0.0800
     35 H35        -8.6135    0.0167   55.5742 H       1  ZINC000455156110    0.4100
     36 H36       -12.9060   -1.2640   55.6666 H       1  ZINC000455156110    0.0800
     37 H37       -12.0664   -2.8283   55.4393 H       1  ZINC000455156110    0.0900
     38 H38       -13.5285   -1.6484   59.1405 H       1  ZINC000455156110    0.0800
     39 H39       -13.4624   -0.4547   57.8205 H       1  ZINC000455156110    0.0800
     40 H40       -15.6284   -1.7100   57.8555 H       1  ZINC000455156110    0.1000
     41 H41       -14.7197   -1.9748   56.3476 H       1  ZINC000455156110    0.0500
     42 H42       -13.6891   -5.3143   57.3312 H       1  ZINC000455156110    0.1000
     43 H43       -13.5792   -4.0941   56.0393 H       1  ZINC000455156110    0.0500
     44 H44       -11.4535   -4.1884   57.2779 H       1  ZINC000455156110    0.0800
     45 H45       -12.3133   -3.9075   58.8122 H       1  ZINC000455156110    0.0800
     46 H46       -11.2026   -2.0329   60.2325 H       1  ZINC000455156110    0.1300
     47 H47        -9.0629   -0.9716   60.8304 H       1  ZINC000455156110    0.1300
     48 H48        -7.6579    0.0340   59.0759 H       1  ZINC000455156110    0.1300
     49 H49        -8.3863   -0.0172   56.7324 H       1  ZINC000455156110    0.1400
     50 H50        -7.5790   -1.5028   53.0725 H       1  ZINC000455156110    0.1700
@<TRIPOS>BOND
     1     1     2    1
     2     1    28    1
     3     1    29    1
     4     1    30    1
     5     2     3    1
     6     3    26   ar
     7     3     4   ar
     8     4     5   ar
     9     4    31    1
    10     5     6    1
    11     5     7   ar
    12     6    32    1
    13     6    33    1
    14     6    34    1
    15     7     8    1
    16     7    25   ar
    17     8     9   am
    18     8    35    1
    19     9    10    2
    20     9    11   am
    21    11    24    1
    22    11    12    1
    23    12    13    1
    24    12    36    1
    25    12    37    1
    26    13    18    1
    27    13    14    1
    28    13    19    1
    29    14    15    1
    30    14    38    1
    31    14    39    1
    32    15    16    1
    33    15    40    1
    34    15    41    1
    35    16    17    1
    36    17    18    1
    37    17    42    1
    38    17    43    1
    39    18    44    1
    40    18    45    1
    41    19    24   ar
    42    19    20   ar
    43    20    21   ar
    44    20    46    1
    45    21    22   ar
    46    21    47    1
    47    22    23   ar
    48    22    48    1
    49    23    24   ar
    50    23    49    1
    51    25    26   ar
    52    25    50    1
    53    26    27    1
@<TRIPOS>SUBSTRUCTURE
     1 ZINC000455156110        1 TEMP              0 ****  ****    0 ROOT


##########                                Name:    ZINC000931749147
##########                DOCK_Rotatable_Bonds:                   5
##########                         Heavy_Atoms:                  25
##########                    Molecular_Weight:             354.397
##########                DOCK_Rotatable_Bonds:                   5
##########                       Formal_Charge:        -4.76837e-07
##########                     HBond_Acceptors:                   7
##########                        HBond_Donors:                   1
##########                         Heavy_Atoms:                  25
##########                          Grid_Score:          -26.261993
##########                     Grid_vdw_energy:          -24.994656
##########                      Grid_es_energy:           -1.267339
##########           Internal_energy_repulsive:          160.871796

@<TRIPOS>MOLECULE
ZINC000931749147
 49 51 1 0 0
SMALL
USER_CHARGES


@<TRIPOS>ATOM
      1 C1          1.4713    2.5646   45.7286 C.3     1  ZINC000931749147   -0.1100
      2 C2          0.6580    1.4491   45.1242 C.ar    1  ZINC000931749147   -0.1300
      3 C3         -0.3656    0.8612   45.8545 C.ar    1  ZINC000931749147    0.1800
      4 N4         -0.6439    1.3043   47.1536 N.am    1  ZINC000931749147   -0.6800
      5 C5         -1.8770    1.7513   47.4635 C.2     1  ZINC000931749147    0.7100
      6 O6         -2.7479    1.7698   46.6152 O.2     1  ZINC000931749147   -0.5500
      7 N7         -2.1447    2.1778   48.7136 N.am    1  ZINC000931749147   -0.6200
      8 C8         -3.4833    2.6702   49.0756 C.3     1  ZINC000931749147    0.0700
      9 C9         -3.3277    4.0285   49.7690 C.3     1  ZINC000931749147    0.0500
     10 O10        -2.3858    3.9063   50.8375 O.3     1  ZINC000931749147   -0.3700
     11 C11        -1.0674    3.5471   50.4173 C.3     1  ZINC000931749147    0.0500
     12 C12        -1.1088    2.1590   49.7586 C.3     1  ZINC000931749147    0.1300
     13 H13        -1.3488    1.4043   50.5075 H       1  ZINC000931749147    0.0900
     14 C14         0.2504    1.8464   49.1293 C.3     1  ZINC000931749147   -0.1100
     15 C15         1.3568    2.0916   50.1573 C.3     1  ZINC000931749147   -0.1000
     16 C16         1.0896    1.2491   51.4084 C.3     1  ZINC000931749147   -0.1500
     17 C17         2.2415    1.4404   52.3984 C.3     1  ZINC000931749147    0.0600
     18 O18         3.4726    1.0752   51.7712 O.3     1  ZINC000931749147   -0.3800
     19 C19         3.7980    1.8610   50.6229 C.3     1  ZINC000931749147    0.0600
     20 C20         2.7086    1.6866   49.5615 C.3     1  ZINC000931749147   -0.1500
     21 C21        -1.1136   -0.1665   45.2955 C.ar    1  ZINC000931749147   -0.1200
     22 C22        -0.8389   -0.6027   44.0141 C.ar    1  ZINC000931749147   -0.1100
     23 C23         0.1818   -0.0164   43.2857 C.ar    1  ZINC000931749147    0.0500
     24 F24         0.4487   -0.4446   42.0325 F       1  ZINC000931749147   -0.1300
     25 C25         0.9269    1.0140   43.8390 C.ar    1  ZINC000931749147    0.0900
     26 F26         1.9229    1.5852   43.1270 F       1  ZINC000931749147   -0.1200
     27 H27         1.0009    3.5213   45.5019 H       1  ZINC000931749147    0.0800
     28 H28         1.5231    2.4321   46.8093 H       1  ZINC000931749147    0.0700
     29 H29         2.4784    2.5470   45.3118 H       1  ZINC000931749147    0.0800
     30 H30         0.0509    1.2896   47.8304 H       1  ZINC000931749147    0.4100
     31 H31        -4.0881    2.7844   48.1760 H       1  ZINC000931749147    0.0800
     32 H32        -3.9630    1.9646   49.7539 H       1  ZINC000931749147    0.0900
     33 H33        -2.9693    4.7652   49.0501 H       1  ZINC000931749147    0.0600
     34 H34        -4.2912    4.3463   50.1675 H       1  ZINC000931749147    0.1100
     35 H35        -0.7007    4.2822   49.7008 H       1  ZINC000931749147    0.0600
     36 H36        -0.4047    3.5187   51.2822 H       1  ZINC000931749147    0.1100
     37 H37         0.2730    0.8037   48.8128 H       1  ZINC000931749147    0.1100
     38 H38         0.4077    2.4919   48.2652 H       1  ZINC000931749147    0.0700
     39 H39         1.3781    3.1480   50.4251 H       1  ZINC000931749147    0.0700
     40 H40         0.1556    1.5689   51.8702 H       1  ZINC000931749147    0.0700
     41 H41         1.0186    0.1974   51.1310 H       1  ZINC000931749147    0.0700
     42 H42         2.2866    2.4850   52.7064 H       1  ZINC000931749147    0.0500
     43 H43         2.0781    0.8102   53.2726 H       1  ZINC000931749147    0.0900
     44 H44         3.8633    2.9111   50.9077 H       1  ZINC000931749147    0.0500
     45 H45         4.7557    1.5338   50.2180 H       1  ZINC000931749147    0.0900
     46 H46         2.6702    0.6437   49.2468 H       1  ZINC000931749147    0.0700
     47 H47         2.9323    2.3193   48.7026 H       1  ZINC000931749147    0.0700
     48 H48        -1.9101   -0.6250   45.8629 H       1  ZINC000931749147    0.1800
     49 H49        -1.4209   -1.4022   43.5799 H       1  ZINC000931749147    0.1500
@<TRIPOS>BOND
     1     1     2    1
     2     1    27    1
     3     1    28    1
     4     1    29    1
     5     2    25   ar
     6     2     3   ar
     7     3     4    1
     8     3    21   ar
     9     4     5   am
    10     4    30    1
    11     5     6    2
    12     5     7   am
    13     7    12    1
    14     7     8    1
    15     8     9    1
    16     8    31    1
    17     8    32    1
    18     9    10    1
    19     9    33    1
    20     9    34    1
    21    10    11    1
    22    11    12    1
    23    11    35    1
    24    11    36    1
    25    12    13    1
    26    12    14    1
    27    14    15    1
    28    14    37    1
    29    14    38    1
    30    15    20    1
    31    15    16    1
    32    15    39    1
    33    16    17    1
    34    16    40    1
    35    16    41    1
    36    17    18    1
    37    17    42    1
    38    17    43    1
    39    18    19    1
    40    19    20    1
    41    19    44    1
    42    19    45    1
    43    20    46    1
    44    20    47    1
    45    21    22   ar
    46    21    48    1
    47    22    23   ar
    48    22    49    1
    49    23    24    1
    50    23    25   ar
    51    25    26    1
@<TRIPOS>SUBSTRUCTURE
     1 ZINC000931749147        1 TEMP              0 ****  ****    0 ROOT


##########                                Name:    ZINC000279974681
##########                DOCK_Rotatable_Bonds:                   4
##########                         Heavy_Atoms:                  23
##########                    Molecular_Weight:              338.79
##########                DOCK_Rotatable_Bonds:                   4
##########                       Formal_Charge:           0.0100008
##########                     HBond_Acceptors:                   7
##########                        HBond_Donors:                   1
##########                         Heavy_Atoms:                  23
##########                          Grid_Score:          -26.239971
##########                     Grid_vdw_energy:          -26.354822
##########                      Grid_es_energy:            0.114851
##########           Internal_energy_repulsive:            7.083972

@<TRIPOS>MOLECULE
ZINC000279974681
 42 45 1 0 0
SMALL
USER_CHARGES


@<TRIPOS>ATOM
      1 C1         -6.1055    5.6743   52.4100 C.3     1  ZINC000279974681   -0.1400
      2 C2         -5.5122    4.3671   51.8805 C.3     1  ZINC000279974681    0.0700
      3 H3         -4.5939    4.1387   52.4216 H       1  ZINC000279974681    0.0600
      4 C4         -5.2033    4.5134   50.3862 C.3     1  ZINC000279974681    0.1000
      5 N5         -4.8129    3.1951   49.8618 N.am    1  ZINC000279974681   -0.6300
      6 C6         -3.6845    3.0415   49.1409 C.2     1  ZINC000279974681    0.7100
      7 O7         -2.9719    4.0006   48.9154 O.2     1  ZINC000279974681   -0.5600
      8 N8         -3.3459    1.8248   48.6702 N.am    1  ZINC000279974681   -0.6700
      9 C9         -2.1721    1.6652   47.9204 C.ar    1  ZINC000279974681    0.2000
     10 C10        -2.2079    1.7939   46.5392 C.ar    1  ZINC000279974681   -0.1200
     11 C11        -1.0479    1.6367   45.7989 C.ar    1  ZINC000279974681    0.0700
     12 C12         0.1532    1.3494   46.4424 C.ar    1  ZINC000279974681    0.0200
     13 C13         0.1854    1.2210   47.8217 C.ar    1  ZINC000279974681   -0.0700
     14 C14        -0.9717    1.3839   48.5606 C.ar    1  ZINC000279974681   -0.0700
     15 Cl15       -0.9274    1.2221   50.2885 Cl      1  ZINC000279974681   -0.0500
     16 O16         1.1377    1.2434   45.5013 O.3     1  ZINC000279974681   -0.3000
     17 C17         0.4530    1.0638   44.2475 C.3     1  ZINC000279974681    0.2100
     18 O18        -0.8164    1.7108   44.4553 O.3     1  ZINC000279974681   -0.3000
     19 C19        -5.6906    2.0492   50.1481 C.3     1  ZINC000279974681    0.0800
     20 C20        -5.9758    2.0231   51.6541 C.3     1  ZINC000279974681    0.1100
     21 H21        -5.0593    1.7852   52.1941 H       1  ZINC000279974681    0.0700
     22 C22        -7.0363    0.9621   51.9550 C.3     1  ZINC000279974681   -0.1600
     23 C23        -6.7076   -0.0821   53.0239 C.3     1  ZINC000279974681   -0.1700
     24 C24        -7.7266    1.0203   53.3193 C.3     1  ZINC000279974681   -0.1600
     25 O25        -6.4523    3.3063   52.0663 O.3     1  ZINC000279974681   -0.3600
     26 H26        -6.3265    5.5690   53.4722 H       1  ZINC000279974681    0.0700
     27 H27        -5.3889    6.4830   52.2665 H       1  ZINC000279974681    0.0800
     28 H28        -7.0237    5.9021   51.8686 H       1  ZINC000279974681    0.0700
     29 H29        -6.0897    4.8694   49.8612 H       1  ZINC000279974681    0.0800
     30 H30        -4.3853    5.2204   50.2479 H       1  ZINC000279974681    0.1100
     31 H31        -3.9143    1.0598   48.8502 H       1  ZINC000279974681    0.4100
     32 H32        -3.1403    2.0164   46.0416 H       1  ZINC000279974681    0.1800
     33 H33         1.1169    0.9979   48.3207 H       1  ZINC000279974681    0.1500
     34 H34         1.0015    1.5470   43.4390 H       1  ZINC000279974681    0.1400
     35 H35         0.3125    0.0036   44.0363 H       1  ZINC000279974681    0.0900
     36 H36        -6.6261    2.1571   49.5992 H       1  ZINC000279974681    0.0900
     37 H37        -5.1954    1.1245   49.8521 H       1  ZINC000279974681    0.0900
     38 H38        -7.6334    0.6391   51.1023 H       1  ZINC000279974681    0.1100
     39 H39        -7.0884   -1.0924   52.8744 H       1  ZINC000279974681    0.1000
     40 H40        -5.7358   -0.0132   53.5128 H       1  ZINC000279974681    0.1000
     41 H41        -7.4252    1.8145   54.0023 H       1  ZINC000279974681    0.1000
     42 H42        -8.7777    0.7353   53.3640 H       1  ZINC000279974681    0.1000
@<TRIPOS>BOND
     1     1     2    1
     2     1    26    1
     3     1    27    1
     4     1    28    1
     5     2     3    1
     6     2    25    1
     7     2     4    1
     8     4     5    1
     9     4    29    1
    10     4    30    1
    11     5     6   am
    12     5    19    1
    13     6     7    2
    14     6     8   am
    15     8     9    1
    16     8    31    1
    17     9    14   ar
    18     9    10   ar
    19    10    11   ar
    20    10    32    1
    21    11    18    1
    22    11    12   ar
    23    12    13   ar
    24    12    16    1
    25    13    14   ar
    26    13    33    1
    27    14    15    1
    28    16    17    1
    29    17    18    1
    30    17    34    1
    31    17    35    1
    32    19    20    1
    33    19    36    1
    34    19    37    1
    35    20    21    1
    36    20    22    1
    37    20    25    1
    38    22    24    1
    39    22    23    1
    40    22    38    1
    41    23    24    1
    42    23    39    1
    43    23    40    1
    44    24    41    1
    45    24    42    1
@<TRIPOS>SUBSTRUCTURE
     1 ZINC000279974681        1 TEMP              0 ****  ****    0 ROOT


##########                                Name:    ZINC000971513996
##########                DOCK_Rotatable_Bonds:                   6
##########                         Heavy_Atoms:                  27
##########                    Molecular_Weight:             369.464
##########                DOCK_Rotatable_Bonds:                   6
##########                       Formal_Charge:          -0.0300002
##########                     HBond_Acceptors:                   6
##########                        HBond_Donors:                   1
##########                         Heavy_Atoms:                  27
##########                          Grid_Score:          -26.239510
##########                     Grid_vdw_energy:          -25.986629
##########                      Grid_es_energy:           -0.252880
##########           Internal_energy_repulsive:           21.536802

@<TRIPOS>MOLECULE
ZINC000971513996
 54 57 1 0 0
SMALL
USER_CHARGES


@<TRIPOS>ATOM
      1 C1         -8.1414   -0.8888   60.6141 C.3     1  ZINC000971513996   -0.1600
      2 C2         -9.5629   -0.5222   60.1826 C.3     1  ZINC000971513996   -0.1400
      3 C3         -9.9667   -1.3761   58.9790 C.3     1  ZINC000971513996    0.0800
      4 H4         -9.2889   -1.1773   58.1488 H       1  ZINC000971513996    0.0800
      5 O5         -9.8960   -2.7593   59.3310 O.3     1  ZINC000971513996   -0.3600
      6 C6        -10.8824   -3.1685   60.2806 C.3     1  ZINC000971513996    0.0200
      7 C7        -11.3760   -1.0332   58.5701 C.2     1  ZINC000971513996    0.5400
      8 O8        -12.1242   -0.4994   59.3613 O.2     1  ZINC000971513996   -0.5100
      9 N9        -11.8050   -1.3197   57.3249 N.am    1  ZINC000971513996   -0.6400
     10 C10       -11.2375   -1.9374   56.1143 C.3     1  ZINC000971513996    0.1000
     11 C11       -12.6652   -2.3923   55.7553 C.3     1  ZINC000971513996   -0.1200
     12 H12       -12.9130   -2.3406   54.6951 H       1  ZINC000971513996    0.1100
     13 C13       -13.0028   -3.7365   56.4049 C.3     1  ZINC000971513996   -0.1200
     14 C14       -14.4677   -3.7268   56.8513 C.3     1  ZINC000971513996    0.1100
     15 N15       -14.6548   -2.6154   57.7877 N.am    1  ZINC000971513996   -0.6000
     16 C16       -15.1421   -2.8553   59.0212 C.2     1  ZINC000971513996    0.5900
     17 O17       -15.4247   -3.9909   59.3533 O.2     1  ZINC000971513996   -0.5200
     18 C18       -15.3322   -1.7442   59.9657 C.2     1  ZINC000971513996    0.0200
     19 C19       -14.7443   -1.6385   61.1860 C.2     1  ZINC000971513996   -0.1000
     20 C20       -15.1864   -0.4289   61.7743 C.ar    1  ZINC000971513996   -0.1100
     21 C21       -14.9227    0.1981   62.9986 C.ar    1  ZINC000971513996   -0.0600
     22 C22       -15.5142    1.3928   63.2908 C.ar    1  ZINC000971513996   -0.1200
     23 C23       -15.2283    2.0647   64.6091 C.3     1  ZINC000971513996   -0.1100
     24 C24       -16.3768    1.9955   62.3843 C.ar    1  ZINC000971513996   -0.0800
     25 C25       -16.6520    1.3990   61.1740 C.ar    1  ZINC000971513996   -0.1300
     26 C26       -16.0614    0.1802   60.8531 C.ar    1  ZINC000971513996    0.1100
     27 N27       -16.1323   -0.6386   59.7509 N.pl3   1  ZINC000971513996   -0.5800
     28 C28       -14.3179   -1.2531   57.3961 C.3     1  ZINC000971513996    0.0700
     29 C29       -13.0481   -1.1632   56.5664 C.3     1  ZINC000971513996    0.1300
     30 H30       -13.0345   -0.2562   55.9621 H       1  ZINC000971513996    0.1100
     31 H31        -7.8149   -0.2110   61.4028 H       1  ZINC000971513996    0.0600
     32 H32        -8.1274   -1.9131   60.9864 H       1  ZINC000971513996    0.0600
     33 H33        -7.4691   -0.8033   59.7603 H       1  ZINC000971513996    0.0600
     34 H34       -10.2517   -0.7072   61.0069 H       1  ZINC000971513996    0.0800
     35 H35        -9.5989    0.5321   59.9086 H       1  ZINC000971513996    0.0800
     36 H36       -10.7008   -2.6679   61.2317 H       1  ZINC000971513996    0.0400
     37 H37       -11.8732   -2.9018   59.9131 H       1  ZINC000971513996    0.0500
     38 H38       -10.8254   -4.2478   60.4214 H       1  ZINC000971513996    0.0900
     39 H39       -10.8212   -1.2156   55.4116 H       1  ZINC000971513996    0.0900
     40 H40       -10.5578   -2.7632   56.3248 H       1  ZINC000971513996    0.0800
     41 H41       -12.8472   -4.5387   55.6836 H       1  ZINC000971513996    0.0900
     42 H42       -12.3595   -3.8943   57.2706 H       1  ZINC000971513996    0.0700
     43 H43       -15.1150   -3.5904   55.9849 H       1  ZINC000971513996    0.0800
     44 H44       -14.7077   -4.6683   57.3454 H       1  ZINC000971513996    0.1000
     45 H45       -14.0621   -2.3497   61.6280 H       1  ZINC000971513996    0.1500
     46 H46       -14.2534   -0.2628   63.7099 H       1  ZINC000971513996    0.1200
     47 H47       -14.3663    2.7232   64.5019 H       1  ZINC000971513996    0.0700
     48 H48       -16.0962    2.6490   64.9149 H       1  ZINC000971513996    0.0600
     49 H49       -15.0156    1.3078   65.3641 H       1  ZINC000971513996    0.0600
     50 H50       -16.8366    2.9411   62.6311 H       1  ZINC000971513996    0.1300
     51 H51       -17.3244    1.8753   60.4759 H       1  ZINC000971513996    0.1200
     52 H52       -16.6583   -0.4684   58.9539 H       1  ZINC000971513996    0.4200
     53 H53       -15.1384   -0.8442   56.8064 H       1  ZINC000971513996    0.0800
     54 H54       -14.1995   -0.6484   58.2953 H       1  ZINC000971513996    0.1200
@<TRIPOS>BOND
     1     1     2    1
     2     1    31    1
     3     1    32    1
     4     1    33    1
     5     2     3    1
     6     2    34    1
     7     2    35    1
     8     3     4    1
     9     3     5    1
    10     3     7    1
    11     5     6    1
    12     6    36    1
    13     6    37    1
    14     6    38    1
    15     7     8    2
    16     7     9   am
    17     9    29    1
    18     9    10    1
    19    10    11    1
    20    10    39    1
    21    10    40    1
    22    11    12    1
    23    11    29    1
    24    11    13    1
    25    13    14    1
    26    13    41    1
    27    13    42    1
    28    14    15    1
    29    14    43    1
    30    14    44    1
    31    15    16   am
    32    15    28    1
    33    16    17    2
    34    16    18    1
    35    18    27    1
    36    18    19    2
    37    19    20    1
    38    19    45    1
    39    20    26   ar
    40    20    21   ar
    41    21    22   ar
    42    21    46    1
    43    22    23    1
    44    22    24   ar
    45    23    47    1
    46    23    48    1
    47    23    49    1
    48    24    25   ar
    49    24    50    1
    50    25    26   ar
    51    25    51    1
    52    26    27    1
    53    27    52    1
    54    28    29    1
    55    28    53    1
    56    28    54    1
    57    29    30    1
@<TRIPOS>SUBSTRUCTURE
     1 ZINC000971513996        1 TEMP              0 ****  ****    0 ROOT


##########                                Name:    ZINC000444205493
##########                DOCK_Rotatable_Bonds:                   4
##########                         Heavy_Atoms:                  24
##########                    Molecular_Weight:             415.351
##########                DOCK_Rotatable_Bonds:                   4
##########                       Formal_Charge:         -0.00999995
##########                     HBond_Acceptors:                   6
##########                        HBond_Donors:                   1
##########                         Heavy_Atoms:                  24
##########                          Grid_Score:          -26.226089
##########                     Grid_vdw_energy:          -26.591434
##########                      Grid_es_energy:            0.365345
##########           Internal_energy_repulsive:            4.864848

@<TRIPOS>MOLECULE
ZINC000444205493
 47 49 1 0 0
SMALL
USER_CHARGES


@<TRIPOS>ATOM
      1 C1          1.7778    3.5673   42.9915 C.3     1  ZINC000444205493   -0.1700
      2 C2          1.1351    3.2498   44.3171 C.2     1  ZINC000444205493    0.5100
      3 O3          0.9711    4.1280   45.1373 O.2     1  ZINC000444205493   -0.5100
      4 N4          0.7427    1.9899   44.5911 N.am    1  ZINC000444205493   -0.6800
      5 C5          0.1458    1.6950   45.8222 C.ar    1  ZINC000444205493    0.2300
      6 C6         -1.2372    1.6447   45.9305 C.ar    1  ZINC000444205493   -0.1400
      7 C7         -1.8234    1.3528   47.1469 C.ar    1  ZINC000444205493    0.0200
      8 C8         -1.0345    1.1113   48.2563 C.ar    1  ZINC000444205493   -0.6900
      9 S9         -1.7867    0.7400   49.8058 S.o2    1  ZINC000444205493    2.7100
     10 O10        -2.4057   -0.5304   49.6573 O.2     1  ZINC000444205493   -0.9500
     11 O11        -0.8120    1.0180   50.8019 O.2     1  ZINC000444205493   -0.9500
     12 N12        -3.0103    1.8329   50.0312 N.am    1  ZINC000444205493   -1.0100
     13 C13        -2.8537    3.2982   50.0972 C.3     1  ZINC000444205493    0.1200
     14 C14        -4.2401    3.8673   49.6980 C.3     1  ZINC000444205493   -0.1200
     15 C15        -5.1901    2.8310   50.3290 C.3     1  ZINC000444205493   -0.0700
     16 C16        -5.4722    3.1711   51.7961 C.3     1  ZINC000444205493   -0.1100
     17 C17        -6.8479    3.8870   51.7553 C.3     1  ZINC000444205493   -0.1200
     18 C18        -7.6103    3.1083   50.6533 C.3     1  ZINC000444205493   -0.1000
     19 H19        -8.0285    2.1864   51.0577 H       1  ZINC000444205493    0.0700
     20 C20        -8.7161    3.9774   50.0512 C.3     1  ZINC000444205493   -0.1500
     21 C21        -6.5296    2.7928   49.5944 C.3     1  ZINC000444205493   -0.1100
     22 C22        -4.4369    1.5037   50.1925 C.3     1  ZINC000444205493    0.1300
     23 C23         0.3437    1.1600   48.1525 C.ar    1  ZINC000444205493    0.0300
     24 C24         0.9365    1.4461   46.9377 C.ar    1  ZINC000444205493   -0.1500
     25 Br25        2.8211    1.5126   46.7962 Br      1  ZINC000444205493   -0.0300
     26 H26         2.0252    4.6281   42.9525 H       1  ZINC000444205493    0.1000
     27 H27         2.6876    2.9777   42.8782 H       1  ZINC000444205493    0.1000
     28 H28         1.0856    3.3258   42.1850 H       1  ZINC000444205493    0.1000
     29 H29         0.8740    1.2875   43.9351 H       1  ZINC000444205493    0.4200
     30 H30        -1.8544    1.8339   45.0646 H       1  ZINC000444205493    0.1600
     31 H31        -2.8994    1.3136   47.2314 H       1  ZINC000444205493    0.1500
     32 H32        -2.5948    3.6064   51.1102 H       1  ZINC000444205493    0.0800
     33 H33        -2.0908    3.6299   49.3927 H       1  ZINC000444205493    0.0800
     34 H34        -4.3965    4.8555   50.1307 H       1  ZINC000444205493    0.0900
     35 H35        -4.3547    3.8940   48.6144 H       1  ZINC000444205493    0.0800
     36 H36        -5.5317    2.2622   52.3948 H       1  ZINC000444205493    0.0700
     37 H37        -4.7051    3.8389   52.1882 H       1  ZINC000444205493    0.0700
     38 H38        -7.3581    3.7973   52.7143 H       1  ZINC000444205493    0.0700
     39 H39        -6.7298    4.9340   51.4763 H       1  ZINC000444205493    0.0700
     40 H40        -8.2789    4.8850   49.6351 H       1  ZINC000444205493    0.0500
     41 H41        -9.2242    3.4237   49.2617 H       1  ZINC000444205493    0.0500
     42 H42        -9.4333    4.2427   50.8280 H       1  ZINC000444205493    0.0500
     43 H43        -6.5463    3.5454   48.8060 H       1  ZINC000444205493    0.0700
     44 H44        -6.6970    1.8023   49.1714 H       1  ZINC000444205493    0.0700
     45 H45        -4.7993    0.9582   49.3212 H       1  ZINC000444205493    0.0700
     46 H46        -4.5752    0.9032   51.0917 H       1  ZINC000444205493    0.0800
     47 H47         0.9572    0.9705   49.0208 H       1  ZINC000444205493    0.1500
@<TRIPOS>BOND
     1     1     2    1
     2     1    26    1
     3     1    27    1
     4     1    28    1
     5     2     3    2
     6     2     4   am
     7     4     5    1
     8     4    29    1
     9     5    24   ar
    10     5     6   ar
    11     6     7   ar
    12     6    30    1
    13     7     8   ar
    14     7    31    1
    15     8     9    1
    16     8    23   ar
    17     9    10    2
    18     9    11    2
    19     9    12   am
    20    12    22    1
    21    12    13    1
    22    13    14    1
    23    13    32    1
    24    13    33    1
    25    14    15    1
    26    14    34    1
    27    14    35    1
    28    15    21    1
    29    15    16    1
    30    15    22    1
    31    16    17    1
    32    16    36    1
    33    16    37    1
    34    17    18    1
    35    17    38    1
    36    17    39    1
    37    18    19    1
    38    18    20    1
    39    18    21    1
    40    20    40    1
    41    20    41    1
    42    20    42    1
    43    21    43    1
    44    21    44    1
    45    22    45    1
    46    22    46    1
    47    23    24   ar
    48    23    47    1
    49    24    25    1
@<TRIPOS>SUBSTRUCTURE
     1 ZINC000444205493        1 TEMP              0 ****  ****    0 ROOT


##########                                Name:    ZINC000864477301
##########                DOCK_Rotatable_Bonds:                   6
##########                         Heavy_Atoms:                  26
##########                    Molecular_Weight:             393.891
##########                DOCK_Rotatable_Bonds:                   6
##########                       Formal_Charge:         -0.00999978
##########                     HBond_Acceptors:                   7
##########                        HBond_Donors:                   1
##########                         Heavy_Atoms:                  26
##########                          Grid_Score:          -25.966120
##########                     Grid_vdw_energy:          -27.274939
##########                      Grid_es_energy:            1.308819
##########           Internal_energy_repulsive:            9.108021

@<TRIPOS>MOLECULE
ZINC000864477301
 46 47 1 0 0
SMALL
USER_CHARGES


@<TRIPOS>ATOM
      1 C1         -1.5134   -0.3282   43.8723 C.3     1  ZINC000864477301   -0.1500
      2 C2         -0.6183    0.6959   44.5728 C.3     1  ZINC000864477301    0.0600
      3 O3         -0.4051    0.2903   45.9506 O.3     1  ZINC000864477301   -0.3500
      4 C4          0.6192    0.8688   46.6070 C.2     1  ZINC000864477301    0.5100
      5 O5          1.6598    1.1009   46.0250 O.2     1  ZINC000864477301   -0.5000
      6 C6          0.4770    1.2208   48.0346 C.ar    1  ZINC000864477301   -0.1400
      7 C7          1.5876    1.6461   48.7659 C.ar    1  ZINC000864477301   -0.0300
      8 C8          1.4477    1.9732   50.0989 C.ar    1  ZINC000864477301   -0.1500
      9 C9          0.2106    1.8800   50.7112 C.ar    1  ZINC000864477301   -0.0100
     10 C10        -0.8944    1.4591   49.9922 C.ar    1  ZINC000864477301   -0.4900
     11 S11        -2.4652    1.3440   50.7820 S.o     1  ZINC000864477301    1.3800
     12 O12        -3.1571    0.3958   49.9810 O.2     1  ZINC000864477301   -0.8100
     13 C13        -3.1763    2.9918   50.5182 C.3     1  ZINC000864477301   -0.4600
     14 H14        -2.5805    3.7339   51.0496 H       1  ZINC000864477301    0.1400
     15 C15        -3.1763    3.3138   49.0226 C.3     1  ZINC000864477301   -0.1400
     16 C16        -4.5907    3.0177   51.0377 C.2     1  ZINC000864477301    0.5500
     17 O17        -4.8643    3.6759   52.0191 O.2     1  ZINC000864477301   -0.5100
     18 N18        -5.5515    2.3095   50.4119 N.am    1  ZINC000864477301   -0.6800
     19 C19        -6.8653    2.3335   50.8944 C.ar    1  ZINC000864477301    0.1400
     20 C20        -7.3387    1.2880   51.6752 C.ar    1  ZINC000864477301   -0.0600
     21 C21        -6.4387    0.1250   52.0045 C.3     1  ZINC000864477301   -0.1100
     22 C22        -8.6357    1.3147   52.1505 C.ar    1  ZINC000864477301   -0.1100
     23 C23        -9.4625    2.3811   51.8496 C.ar    1  ZINC000864477301   -0.1000
     24 C24        -8.9947    3.4246   51.0716 C.ar    1  ZINC000864477301   -0.1100
     25 C25        -7.6968    3.4071   50.5978 C.ar    1  ZINC000864477301   -0.0200
     26 Cl26       -7.1099    4.7173   49.6219 Cl      1  ZINC000864477301   -0.0600
     27 C27        -0.7700    1.1349   48.6574 C.ar    1  ZINC000864477301    0.0100
     28 H28        -1.0320   -1.3059   43.8929 H       1  ZINC000864477301    0.0700
     29 H29        -2.4726   -0.3847   44.3870 H       1  ZINC000864477301    0.0700
     30 H30        -1.6735   -0.0237   42.8380 H       1  ZINC000864477301    0.0800
     31 H31         0.3408    0.7525   44.0581 H       1  ZINC000864477301    0.0700
     32 H32        -1.0998    1.6736   44.5523 H       1  ZINC000864477301    0.0700
     33 H33         2.5540    1.7186   48.2893 H       1  ZINC000864477301    0.1400
     34 H34         2.3060    2.3023   50.6658 H       1  ZINC000864477301    0.1400
     35 H35         0.1069    2.1365   51.7551 H       1  ZINC000864477301    0.1500
     36 H36        -3.6036    4.3040   48.8640 H       1  ZINC000864477301    0.0700
     37 H37        -2.1533    3.2952   48.6468 H       1  ZINC000864477301    0.0700
     38 H38        -3.7721    2.5717   48.4911 H       1  ZINC000864477301    0.0700
     39 H39        -5.3326    1.7830   49.6271 H       1  ZINC000864477301    0.4100
     40 H40        -5.9018    0.3319   52.9303 H       1  ZINC000864477301    0.0800
     41 H41        -7.0394   -0.7762   52.1265 H       1  ZINC000864477301    0.0700
     42 H42        -5.7236   -0.0217   51.1950 H       1  ZINC000864477301    0.0700
     43 H43        -9.0045    0.5011   52.7576 H       1  ZINC000864477301    0.1400
     44 H44       -10.4758    2.3992   52.2224 H       1  ZINC000864477301    0.1400
     45 H45        -9.6432    4.2562   50.8380 H       1  ZINC000864477301    0.1400
     46 H46        -1.6332    0.8069   48.0973 H       1  ZINC000864477301    0.1400
@<TRIPOS>BOND
     1     1     2    1
     2     1    28    1
     3     1    29    1
     4     1    30    1
     5     2     3    1
     6     2    31    1
     7     2    32    1
     8     3     4    1
     9     4     5    2
    10     4     6    1
    11     6    27   ar
    12     6     7   ar
    13     7     8   ar
    14     7    33    1
    15     8     9   ar
    16     8    34    1
    17     9    10   ar
    18     9    35    1
    19    10    11    1
    20    10    27   ar
    21    11    12    2
    22    11    13    1
    23    13    14    1
    24    13    15    1
    25    13    16    1
    26    15    36    1
    27    15    37    1
    28    15    38    1
    29    16    17    2
    30    16    18   am
    31    18    19    1
    32    18    39    1
    33    19    25   ar
    34    19    20   ar
    35    20    21    1
    36    20    22   ar
    37    21    40    1
    38    21    41    1
    39    21    42    1
    40    22    23   ar
    41    22    43    1
    42    23    24   ar
    43    23    44    1
    44    24    25   ar
    45    24    45    1
    46    25    26    1
    47    27    46    1
@<TRIPOS>SUBSTRUCTURE
     1 ZINC000864477301        1 TEMP              0 ****  ****    0 ROOT


##########                                Name:    ZINC000962855438
##########                DOCK_Rotatable_Bonds:                   7
##########                         Heavy_Atoms:                  27
##########                    Molecular_Weight:             370.448
##########                DOCK_Rotatable_Bonds:                   7
##########                       Formal_Charge:           0.0300005
##########                     HBond_Acceptors:                   6
##########                        HBond_Donors:                   2
##########                         Heavy_Atoms:                  27
##########                          Grid_Score:          -25.953228
##########                     Grid_vdw_energy:          -25.230164
##########                      Grid_es_energy:           -0.723065
##########           Internal_energy_repulsive:           11.777809

@<TRIPOS>MOLECULE
ZINC000962855438
 53 56 1 0 0
SMALL
USER_CHARGES


@<TRIPOS>ATOM
      1 C1         -8.1397    2.6358   59.8730 C.3     1  ZINC000962855438   -0.1100
      2 C2         -8.7824    1.3227   60.2393 C.2     1  ZINC000962855438   -0.1700
      3 C3         -8.9988    0.2967   59.2077 C.2     1  ZINC000962855438    0.5600
      4 O4         -8.5200    0.4389   58.0988 O.2     1  ZINC000962855438   -0.5400
      5 N5         -9.7276   -0.8009   59.4913 N.am    1  ZINC000962855438   -0.7100
      6 C6         -9.9445   -1.8220   58.4633 C.3     1  ZINC000962855438    0.1500
      7 H7         -9.1108   -1.8504   57.7619 H       1  ZINC000962855438    0.1200
      8 C8        -11.2852   -1.5887   57.7233 C.3     1  ZINC000962855438    0.1000
      9 N9        -11.6694   -2.9166   57.2109 N.am    1  ZINC000962855438   -0.6100
     10 C10       -12.4759   -3.1483   56.1562 C.2     1  ZINC000962855438    0.5800
     11 O11       -12.7249   -4.2901   55.8206 O.2     1  ZINC000962855438   -0.5200
     12 C12       -13.0567   -2.0165   55.4090 C.ar    1  ZINC000962855438   -0.1500
     13 C13       -14.4018   -1.6867   55.5747 C.ar    1  ZINC000962855438   -0.0600
     14 C14       -14.9473   -0.6303   54.8773 C.ar    1  ZINC000962855438   -0.1500
     15 C15       -14.1594    0.1048   54.0058 C.ar    1  ZINC000962855438   -0.0500
     16 C16       -12.8310   -0.2139   53.8325 C.ar    1  ZINC000962855438   -0.1800
     17 C17       -12.2532   -1.2645   54.5327 C.ar    1  ZINC000962855438    0.1600
     18 O18       -10.9346   -1.3926   54.2314 O.3     1  ZINC000962855438   -0.2800
     19 C19       -10.6646   -0.7212   52.9891 C.3     1  ZINC000962855438    0.0700
     20 H20       -10.7827   -1.4037   52.1475 H       1  ZINC000962855438    0.0900
     21 C21        -9.2617   -0.1107   52.9965 C.3     1  ZINC000962855438   -0.1500
     22 C22       -11.7460    0.3870   52.9593 C.3     1  ZINC000962855438   -0.1100
     23 C23       -11.0264   -3.9461   58.0404 C.3     1  ZINC000962855438    0.0700
     24 C24       -10.1797   -3.2153   59.1043 C.3     1  ZINC000962855438    0.0900
     25 H25        -9.2334   -3.7315   59.2655 H       1  ZINC000962855438    0.0900
     26 O26       -10.9031   -3.0950   60.3309 O.3     1  ZINC000962855438   -0.5600
     27 C27        -9.1538    1.0917   61.4952 C.2     1  ZINC000962855438   -0.0600
     28 C28        -9.1179    1.8507   62.8048 C.3     1  ZINC000962855438   -0.1000
     29 C29        -9.1037    0.4875   63.5141 C.3     1  ZINC000962855438   -0.1400
     30 C30        -9.8071   -0.0451   62.2523 C.3     1  ZINC000962855438   -0.1100
     31 H31        -8.9110    3.3496   59.5839 H       1  ZINC000962855438    0.0700
     32 H32        -7.5896    3.0227   60.7308 H       1  ZINC000962855438    0.0700
     33 H33        -7.4537    2.4845   59.0396 H       1  ZINC000962855438    0.0700
     34 H34       -10.1085   -0.9149   60.3761 H       1  ZINC000962855438    0.4100
     35 H35       -12.0406   -1.2159   58.4150 H       1  ZINC000962855438    0.0800
     36 H36       -11.1467   -0.8895   56.8987 H       1  ZINC000962855438    0.0900
     37 H37       -15.0176   -2.2608   56.2511 H       1  ZINC000962855438    0.1400
     38 H38       -15.9886   -0.3759   55.0096 H       1  ZINC000962855438    0.1400
     39 H39       -14.5893    0.9314   53.4597 H       1  ZINC000962855438    0.1300
     40 H40        -8.5215   -0.9024   53.1119 H       1  ZINC000962855438    0.0700
     41 H41        -9.0889    0.4141   52.0569 H       1  ZINC000962855438    0.0800
     42 H42        -9.1752    0.5913   53.8259 H       1  ZINC000962855438    0.0700
     43 H43       -12.1117    0.5473   51.9452 H       1  ZINC000962855438    0.1000
     44 H44       -11.3649    1.3148   53.3858 H       1  ZINC000962855438    0.1000
     45 H45       -11.7860   -4.5580   58.5268 H       1  ZINC000962855438    0.0800
     46 H46       -10.3833   -4.5723   57.4219 H       1  ZINC000962855438    0.0800
     47 H47       -11.7028   -2.5555   60.2645 H       1  ZINC000962855438    0.3900
     48 H48        -8.2039    2.4267   62.9496 H       1  ZINC000962855438    0.0900
     49 H49       -10.0197    2.4321   62.9963 H       1  ZINC000962855438    0.1000
     50 H50        -8.1038    0.0825   63.6698 H       1  ZINC000962855438    0.0900
     51 H51        -9.7239    0.4507   64.4097 H       1  ZINC000962855438    0.0800
     52 H52       -10.8940    0.0239   62.2975 H       1  ZINC000962855438    0.1000
     53 H53        -9.4579   -1.0298   61.9416 H       1  ZINC000962855438    0.0800
@<TRIPOS>BOND
     1     1     2    1
     2     1    31    1
     3     1    32    1
     4     1    33    1
     5     2     3    1
     6     2    27    2
     7     3     4    2
     8     3     5   am
     9     5     6    1
    10     5    34    1
    11     6     7    1
    12     6    24    1
    13     6     8    1
    14     8     9    1
    15     8    35    1
    16     8    36    1
    17     9    10   am
    18     9    23    1
    19    10    11    2
    20    10    12    1
    21    12    17   ar
    22    12    13   ar
    23    13    14   ar
    24    13    37    1
    25    14    15   ar
    26    14    38    1
    27    15    16   ar
    28    15    39    1
    29    16    22    1
    30    16    17   ar
    31    17    18    1
    32    18    19    1
    33    19    20    1
    34    19    21    1
    35    19    22    1
    36    21    40    1
    37    21    41    1
    38    21    42    1
    39    22    43    1
    40    22    44    1
    41    23    24    1
    42    23    45    1
    43    23    46    1
    44    24    25    1
    45    24    26    1
    46    26    47    1
    47    27    30    1
    48    27    28    1
    49    28    29    1
    50    28    48    1
    51    28    49    1
    52    29    30    1
    53    29    50    1
    54    29    51    1
    55    30    52    1
    56    30    53    1
@<TRIPOS>SUBSTRUCTURE
     1 ZINC000962855438        1 TEMP              0 ****  ****    0 ROOT


##########                                Name:    ZINC000817655807
##########                DOCK_Rotatable_Bonds:                   3
##########                         Heavy_Atoms:                  24
##########                    Molecular_Weight:             352.774
##########                DOCK_Rotatable_Bonds:                   3
##########                       Formal_Charge:         3.35276e-07
##########                     HBond_Acceptors:                   8
##########                        HBond_Donors:                   0
##########                         Heavy_Atoms:                  24
##########                          Grid_Score:          -25.918781
##########                     Grid_vdw_energy:          -26.899977
##########                      Grid_es_energy:            0.981195
##########           Internal_energy_repulsive:            3.367168

@<TRIPOS>MOLECULE
ZINC000817655807
 41 44 1 0 0
SMALL
USER_CHARGES


@<TRIPOS>ATOM
      1 C1         -9.5170    0.7759   54.4480 C.3     1  ZINC000817655807    0.1100
      2 N2         -8.8838    0.9138   55.7619 N.am    1  ZINC000817655807   -0.6400
      3 C3         -9.5441    0.6874   57.0601 C.3     1  ZINC000817655807    0.1000
      4 C4         -8.4318    0.9686   58.0744 C.3     1  ZINC000817655807    0.0500
      5 C5         -8.7930    1.9281   59.2084 C.3     1  ZINC000817655807    0.1200
      6 N6         -9.1188    0.7139   59.9853 N.am    1  ZINC000817655807   -0.6500
      7 C7         -9.9170    0.4554   61.0401 C.2     1  ZINC000817655807    0.5500
      8 O8        -10.5621    1.3492   61.5458 O.2     1  ZINC000817655807   -0.5100
      9 C9        -10.0078   -0.9444   61.5910 C.3     1  ZINC000817655807   -0.0900
     10 C10       -10.9871   -1.7444   60.7711 C.ar    1  ZINC000817655807   -0.0600
     11 C11       -10.5254   -2.6791   59.8638 C.ar    1  ZINC000817655807   -0.0900
     12 C12       -11.4214   -3.4137   59.1080 C.ar    1  ZINC000817655807   -0.0300
     13 Cl13      -10.8380   -4.5867   57.9689 Cl      1  ZINC000817655807   -0.0500
     14 C14       -12.7861   -3.2139   59.2599 C.ar    1  ZINC000817655807    0.0600
     15 O15       -13.6558   -3.9384   58.5037 O.3     1  ZINC000817655807   -0.2900
     16 C16       -15.0166   -3.9771   58.9475 C.3     1  ZINC000817655807    0.0200
     17 C17       -15.4460   -2.5481   59.3064 C.3     1  ZINC000817655807    0.0200
     18 O18       -14.5839   -2.0681   60.3437 O.3     1  ZINC000817655807   -0.3000
     19 C19       -13.2494   -2.2765   60.1752 C.ar    1  ZINC000817655807    0.0600
     20 C20       -12.3456   -1.5459   60.9322 C.ar    1  ZINC000817655807   -0.0900
     21 C21        -8.2205   -0.1036   59.1435 C.3     1  ZINC000817655807    0.1100
     22 O22        -7.2757    1.3194   57.2793 O.3     1  ZINC000817655807   -0.3000
     23 C23        -7.6064    1.2612   55.9804 C.2     1  ZINC000817655807    0.6400
     24 O24        -6.8233    1.5079   55.0846 O.2     1  ZINC000817655807   -0.5100
     25 H25        -8.7888    1.0001   53.6684 H       1  ZINC000817655807    0.0900
     26 H26        -9.8789   -0.2448   54.3244 H       1  ZINC000817655807    0.0700
     27 H27       -10.3543    1.4698   54.3735 H       1  ZINC000817655807    0.0700
     28 H28       -10.3731    1.3819   57.1961 H       1  ZINC000817655807    0.1000
     29 H29        -9.8875   -0.3438   57.1421 H       1  ZINC000817655807    0.1000
     30 H30        -7.9428    2.4865   59.6002 H       1  ZINC000817655807    0.1100
     31 H31        -9.6560    2.5583   58.9938 H       1  ZINC000817655807    0.1000
     32 H32        -9.0264   -1.4165   61.5474 H       1  ZINC000817655807    0.1100
     33 H33       -10.3468   -0.9060   62.6263 H       1  ZINC000817655807    0.1100
     34 H34        -9.4636   -2.8362   59.7445 H       1  ZINC000817655807    0.1400
     35 H35       -15.6522   -4.3627   58.1505 H       1  ZINC000817655807    0.1300
     36 H36       -15.0986   -4.6171   59.8260 H       1  ZINC000817655807    0.0800
     37 H37       -15.3583   -1.9067   58.4294 H       1  ZINC000817655807    0.0800
     38 H38       -16.4777   -2.5517   59.6582 H       1  ZINC000817655807    0.1300
     39 H39       -12.7036   -0.8183   61.6454 H       1  ZINC000817655807    0.1400
     40 H40        -8.6317   -1.0775   58.8777 H       1  ZINC000817655807    0.1000
     41 H41        -7.1975   -0.1587   59.5157 H       1  ZINC000817655807    0.1100
@<TRIPOS>BOND
     1     1     2    1
     2     1    25    1
     3     1    26    1
     4     1    27    1
     5     2    23   am
     6     2     3    1
     7     3     4    1
     8     3    28    1
     9     3    29    1
    10     4    21    1
    11     4     5    1
    12     4    22    1
    13     5     6    1
    14     5    30    1
    15     5    31    1
    16     6     7   am
    17     6    21    1
    18     7     8    2
    19     7     9    1
    20     9    10    1
    21     9    32    1
    22     9    33    1
    23    10    20   ar
    24    10    11   ar
    25    11    12   ar
    26    11    34    1
    27    12    13    1
    28    12    14   ar
    29    14    19   ar
    30    14    15    1
    31    15    16    1
    32    16    17    1
    33    16    35    1
    34    16    36    1
    35    17    18    1
    36    17    37    1
    37    17    38    1
    38    18    19    1
    39    19    20   ar
    40    20    39    1
    41    21    40    1
    42    21    41    1
    43    22    23    1
    44    23    24    2
@<TRIPOS>SUBSTRUCTURE
     1 ZINC000817655807        1 TEMP              0 ****  ****    0 ROOT


##########                                Name:    ZINC000002873519
##########                DOCK_Rotatable_Bonds:                   5
##########                         Heavy_Atoms:                  25
##########                    Molecular_Weight:             375.207
##########                DOCK_Rotatable_Bonds:                   5
##########                       Formal_Charge:               -0.02
##########                     HBond_Acceptors:                   6
##########                        HBond_Donors:                   0
##########                         Heavy_Atoms:                  25
##########                          Grid_Score:          -25.916241
##########                     Grid_vdw_energy:          -24.433344
##########                      Grid_es_energy:           -1.482897
##########           Internal_energy_repulsive:            7.277597

@<TRIPOS>MOLECULE
ZINC000002873519
 37 39 1 0 0
SMALL
USER_CHARGES


@<TRIPOS>ATOM
      1 C1         -8.7403    1.1104   55.7654 C.3     1  ZINC000002873519   -0.1500
      2 C2         -9.4404   -0.1845   56.0882 C.2     1  ZINC000002873519    0.4500
      3 O3         -9.0872   -1.2109   55.5575 O.2     1  ZINC000002873519   -0.4800
      4 O4        -10.4567   -0.1977   56.9659 O.3     1  ZINC000002873519   -0.2900
      5 C5        -11.2130   -1.3236   57.0161 C.ar    1  ZINC000002873519    0.1200
      6 C6        -12.2189   -1.5281   56.0865 C.ar    1  ZINC000002873519   -0.1100
      7 C7        -12.9887   -2.6749   56.1374 C.ar    1  ZINC000002873519   -0.0800
      8 C8        -12.7630   -3.6306   57.1168 C.ar    1  ZINC000002873519   -0.0400
      9 Cl9       -13.7394   -5.0651   57.1651 Cl      1  ZINC000002873519   -0.0500
     10 C10       -11.7671   -3.4470   58.0517 C.ar    1  ZINC000002873519   -0.0800
     11 C11       -10.9750   -2.2914   58.0092 C.ar    1  ZINC000002873519   -0.0700
     12 C12        -9.9149   -2.0878   58.9974 C.2     1  ZINC000002873519    0.0400
     13 C13       -10.1962   -1.4525   60.1910 C.2     1  ZINC000002873519   -0.1900
     14 C14        -9.2690   -1.1531   61.2959 C.2     1  ZINC000002873519   -0.2000
     15 C15        -9.9949   -0.5258   62.2452 C.2     1  ZINC000002873519    0.1200
     16 C16        -9.4492   -0.0473   63.5310 C.ar    1  ZINC000002873519   -0.0400
     17 C17        -8.0854   -0.1743   63.8047 C.ar    1  ZINC000002873519   -0.0800
     18 C18        -7.5819    0.2745   65.0075 C.ar    1  ZINC000002873519   -0.1100
     19 C19        -8.4254    0.8499   65.9433 C.ar    1  ZINC000002873519   -0.0200
     20 Cl20       -7.7838    1.4124   67.4550 Cl      1  ZINC000002873519   -0.0600
     21 C21        -9.7786    0.9788   65.6779 C.ar    1  ZINC000002873519   -0.1100
     22 C22       -10.2936    0.5397   64.4763 C.ar    1  ZINC000002873519   -0.0800
     23 O23       -11.2823   -0.3918   61.8682 O.3     1  ZINC000002873519   -0.2600
     24 C24       -11.4920   -0.9138   60.6464 C.2     1  ZINC000002873519    0.5200
     25 O25       -12.5461   -0.9436   60.0392 O.2     1  ZINC000002873519   -0.4200
     26 H26        -9.2354    1.5904   54.9213 H       1  ZINC000002873519    0.1100
     27 H27        -8.7786    1.7701   56.6323 H       1  ZINC000002873519    0.1000
     28 H28        -7.7005    0.9072   55.5092 H       1  ZINC000002873519    0.1100
     29 H29       -12.4025   -0.7895   55.3202 H       1  ZINC000002873519    0.1500
     30 H30       -13.7717   -2.8277   55.4095 H       1  ZINC000002873519    0.1500
     31 H31       -11.5950   -4.1935   58.8130 H       1  ZINC000002873519    0.1500
     32 H32        -8.9126   -2.4344   58.7933 H       1  ZINC000002873519    0.1500
     33 H33        -8.2161   -1.3895   61.3384 H       1  ZINC000002873519    0.1700
     34 H34        -7.4267   -0.6235   63.0761 H       1  ZINC000002873519    0.1400
     35 H35        -6.5276    0.1769   65.2205 H       1  ZINC000002873519    0.1400
     36 H36       -10.4312    1.4281   66.4118 H       1  ZINC000002873519    0.1400
     37 H37       -11.3489    0.6407   64.2705 H       1  ZINC000002873519    0.1400
@<TRIPOS>BOND
     1     1     2    1
     2     1    26    1
     3     1    27    1
     4     1    28    1
     5     2     3    2
     6     2     4    1
     7     4     5    1
     8     5    11   ar
     9     5     6   ar
    10     6     7   ar
    11     6    29    1
    12     7     8   ar
    13     7    30    1
    14     8     9    1
    15     8    10   ar
    16    10    11   ar
    17    10    31    1
    18    11    12    1
    19    12    13    2
    20    12    32    1
    21    13    24    1
    22    13    14    1
    23    14    15    2
    24    14    33    1
    25    15    16    1
    26    15    23    1
    27    16    22   ar
    28    16    17   ar
    29    17    18   ar
    30    17    34    1
    31    18    19   ar
    32    18    35    1
    33    19    20    1
    34    19    21   ar
    35    21    22   ar
    36    21    36    1
    37    22    37    1
    38    23    24    1
    39    24    25    2
@<TRIPOS>SUBSTRUCTURE
     1 ZINC000002873519        1 TEMP              0 ****  ****    0 ROOT


##########                                Name:    ZINC000826324849
##########                DOCK_Rotatable_Bonds:                   4
##########                         Heavy_Atoms:                  27
##########                    Molecular_Weight:             395.374
##########                DOCK_Rotatable_Bonds:                   4
##########                       Formal_Charge:           0.0400001
##########                     HBond_Acceptors:                  13
##########                        HBond_Donors:                   1
##########                         Heavy_Atoms:                  27
##########                          Grid_Score:          -25.814405
##########                     Grid_vdw_energy:          -24.573322
##########                      Grid_es_energy:           -1.241082
##########           Internal_energy_repulsive:           85.403030

@<TRIPOS>MOLECULE
ZINC000826324849
 41 44 1 0 0
SMALL
USER_CHARGES


@<TRIPOS>ATOM
      1 C1        -12.7489    3.3550   56.1517 C.3     1  ZINC000826324849   -0.0600
      2 C2        -11.8098    2.6405   57.0892 C.2     1  ZINC000826324849    0.2000
      3 N3        -11.1337    1.5464   56.8336 N.2     1  ZINC000826324849   -0.4600
      4 C4        -10.4374    1.2812   57.9532 C.2     1  ZINC000826324849    0.1600
      5 C5         -9.5008    0.1202   58.1671 C.3     1  ZINC000826324849    0.2200
      6 H6         -9.2232   -0.3096   57.2045 H       1  ZINC000826324849    0.1300
      7 C7         -8.2430    0.5997   58.9004 C.3     1  ZINC000826324849    0.0600
      8 O8         -7.4489   -0.5325   59.2627 O.3     1  ZINC000826324849   -0.3600
      9 C9         -8.0911   -1.4318   60.1696 C.3     1  ZINC000826324849    0.0400
     10 C10        -9.3411   -2.0154   59.5012 C.3     1  ZINC000826324849    0.0800
     11 N11       -10.1601   -0.9025   58.9946 N.am    1  ZINC000826324849   -1.0100
     12 S12       -11.7751   -0.8032   59.3470 S.o2    1  ZINC000826324849    2.7100
     13 O13       -11.8828   -0.8838   60.7616 O.2     1  ZINC000826324849   -0.9300
     14 O14       -12.2848    0.2857   58.5895 O.2     1  ZINC000826324849   -0.9300
     15 C15       -12.5390   -2.2559   58.7063 C.ar    1  ZINC000826324849   -0.5800
     16 C16       -11.9751   -2.9180   57.6348 C.ar    1  ZINC000826324849   -0.0400
     17 C17       -12.5728   -4.0589   57.1296 C.ar    1  ZINC000826324849   -0.0800
     18 C18       -13.7384   -4.5430   57.6938 C.ar    1  ZINC000826324849   -0.1100
     19 C19       -14.3128   -3.8881   58.7678 C.ar    1  ZINC000826324849    0.1300
     20 F20       -15.4516   -4.3615   59.3193 F       1  ZINC000826324849   -0.1100
     21 C21       -13.7100   -2.7409   59.2841 C.ar    1  ZINC000826324849    0.0500
     22 C22       -14.3206   -2.0330   60.4371 C.2     1  ZINC000826324849    0.1800
     23 N23       -14.1968   -2.3497   61.7107 N.2     1  ZINC000826324849   -0.2600
     24 N24       -14.8743   -1.4949   62.3972 N.pl3   1  ZINC000826324849   -0.2200
     25 N25       -15.4231   -0.6469   61.5992 N.2     1  ZINC000826324849   -0.0200
     26 N26       -15.1005   -0.9438   60.3862 N.2     1  ZINC000826324849   -0.2600
     27 N27       -10.7203    2.2102   58.8166 N.2     1  ZINC000826324849   -0.3800
     28 O28       -11.5025    3.0042   58.3380 O.3     1  ZINC000826324849    0.0900
     29 H29       -13.1562    4.2362   56.6472 H       1  ZINC000826324849    0.1000
     30 H30       -12.2067    3.6595   55.2566 H       1  ZINC000826324849    0.1100
     31 H31       -13.5631    2.6859   55.8734 H       1  ZINC000826324849    0.1100
     32 H32        -7.6672    1.2539   58.2459 H       1  ZINC000826324849    0.1200
     33 H33        -8.5312    1.1449   59.7992 H       1  ZINC000826324849    0.0600
     34 H34        -7.4060   -2.2392   60.4282 H       1  ZINC000826324849    0.1200
     35 H35        -8.3789   -0.8940   61.0731 H       1  ZINC000826324849    0.0600
     36 H36        -9.0474   -2.6608   58.6734 H       1  ZINC000826324849    0.0900
     37 H37        -9.9129   -2.5898   60.2301 H       1  ZINC000826324849    0.1100
     38 H38       -11.0649   -2.5444   57.1892 H       1  ZINC000826324849    0.1400
     39 H39       -12.1272   -4.5732   56.2909 H       1  ZINC000826324849    0.1500
     40 H40       -14.2011   -5.4336   57.2949 H       1  ZINC000826324849    0.1500
     41 H41       -14.9579   -1.4913   63.3636 H       1  ZINC000826324849    0.4800
@<TRIPOS>BOND
     1     1     2    1
     2     1    29    1
     3     1    30    1
     4     1    31    1
     5     2    28    1
     6     2     3    2
     7     3     4    1
     8     4     5    1
     9     4    27    2
    10     5     6    1
    11     5    11    1
    12     5     7    1
    13     7     8    1
    14     7    32    1
    15     7    33    1
    16     8     9    1
    17     9    10    1
    18     9    34    1
    19     9    35    1
    20    10    11    1
    21    10    36    1
    22    10    37    1
    23    11    12   am
    24    12    13    2
    25    12    14    2
    26    12    15    1
    27    15    21   ar
    28    15    16   ar
    29    16    17   ar
    30    16    38    1
    31    17    18   ar
    32    17    39    1
    33    18    19   ar
    34    18    40    1
    35    19    20    1
    36    19    21   ar
    37    21    22    1
    38    22    26    1
    39    22    23    2
    40    23    24    1
    41    24    25    1
    42    24    41    1
    43    25    26    2
    44    27    28    1
@<TRIPOS>SUBSTRUCTURE
     1 ZINC000826324849        1 TEMP              0 ****  ****    0 ROOT


##########                                Name:    ZINC000277311370
##########                DOCK_Rotatable_Bonds:                   5
##########                         Heavy_Atoms:                  17
##########                    Molecular_Weight:             361.036
##########                DOCK_Rotatable_Bonds:                   5
##########                       Formal_Charge:        -7.45058e-08
##########                     HBond_Acceptors:                   4
##########                        HBond_Donors:                   1
##########                         Heavy_Atoms:                  17
##########                          Grid_Score:          -25.793308
##########                     Grid_vdw_energy:          -25.666267
##########                      Grid_es_energy:           -0.127040
##########           Internal_energy_repulsive:           11.743798

@<TRIPOS>MOLECULE
ZINC000277311370
 28 28 1 0 0
SMALL
USER_CHARGES


@<TRIPOS>ATOM
      1 C1         -6.1751    3.4729   52.0939 C.3     1  ZINC000277311370   -0.1500
      2 C2         -5.6870    2.0228   52.1095 C.3     1  ZINC000277311370   -0.1000
      3 C3         -6.5071    1.2195   53.1209 C.3     1  ZINC000277311370   -0.1600
      4 C4         -5.8559    1.4130   50.7165 C.3     1  ZINC000277311370    0.2500
      5 H5         -6.6001    1.9814   50.1588 H       1  ZINC000277311370    0.1400
      6 C6         -6.2998    0.0152   50.8433 C.1     1  ZINC000277311370    0.1900
      7 N7         -6.6423   -1.0634   50.9411 N.1     1  ZINC000277311370   -0.4100
      8 N8         -4.5754    1.4562   50.0061 N.am    1  ZINC000277311370   -0.7000
      9 C9         -4.3398    2.4258   49.1000 C.2     1  ZINC000277311370    0.5700
     10 O10        -5.1890    3.2651   48.8735 O.2     1  ZINC000277311370   -0.4900
     11 C11        -3.0461    2.4684   48.3805 C.ar    1  ZINC000277311370    0.1100
     12 N12        -2.8903    1.7673   47.2639 N.ar    1  ZINC000277311370   -0.4300
     13 C13        -1.7577    1.7783   46.5944 C.ar    1  ZINC000277311370    0.1300
     14 Br14       -1.6009    0.7571   45.0105 Br      1  ZINC000277311370    0.0200
     15 C15        -0.6771    2.5287   47.0343 C.ar    1  ZINC000277311370   -0.1100
     16 C16        -0.7963    3.2753   48.1950 C.ar    1  ZINC000277311370   -0.0400
     17 C17        -2.0038    3.2489   48.8779 C.ar    1  ZINC000277311370   -0.0900
     18 Br18       -2.2279    4.2469   50.4684 Br      1  ZINC000277311370    0.0300
     19 H19        -6.0549    3.9074   53.0863 H       1  ZINC000277311370    0.0700
     20 H20        -5.5909    4.0451   51.3734 H       1  ZINC000277311370    0.0700
     21 H21        -7.2275    3.4989   51.8110 H       1  ZINC000277311370    0.0600
     22 H22        -4.6347    1.9968   52.3925 H       1  ZINC000277311370    0.1000
     23 H23        -7.5594    1.2455   52.8379 H       1  ZINC000277311370    0.0600
     24 H24        -6.1594    0.1864   53.1319 H       1  ZINC000277311370    0.0600
     25 H25        -6.3868    1.6540   54.1133 H       1  ZINC000277311370    0.0700
     26 H26        -3.8971    0.7870   50.1877 H       1  ZINC000277311370    0.4200
     27 H27         0.2481    2.5307   46.4773 H       1  ZINC000277311370    0.1600
     28 H28         0.0306    3.8677   48.5579 H       1  ZINC000277311370    0.1700
@<TRIPOS>BOND
     1     1     2    1
     2     1    19    1
     3     1    20    1
     4     1    21    1
     5     2     3    1
     6     2     4    1
     7     2    22    1
     8     3    23    1
     9     3    24    1
    10     3    25    1
    11     4     5    1
    12     4     6    1
    13     4     8    1
    14     6     7    3
    15     8     9   am
    16     8    26    1
    17     9    10    2
    18     9    11    1
    19    11    17   ar
    20    11    12   ar
    21    12    13   ar
    22    13    14    1
    23    13    15   ar
    24    15    16   ar
    25    15    27    1
    26    16    17   ar
    27    16    28    1
    28    17    18    1
@<TRIPOS>SUBSTRUCTURE
     1 ZINC000277311370        1 TEMP              0 ****  ****    0 ROOT


##########                                Name:    ZINC000836820897
##########                DOCK_Rotatable_Bonds:                   5
##########                         Heavy_Atoms:                  22
##########                    Molecular_Weight:             330.355
##########                DOCK_Rotatable_Bonds:                   5
##########                       Formal_Charge:          -0.0200003
##########                     HBond_Acceptors:                   8
##########                        HBond_Donors:                   1
##########                         Heavy_Atoms:                  22
##########                          Grid_Score:          -25.750681
##########                     Grid_vdw_energy:          -25.699802
##########                      Grid_es_energy:           -0.050878
##########           Internal_energy_repulsive:           10.364208

@<TRIPOS>MOLECULE
ZINC000836820897
 38 40 1 0 0
SMALL
USER_CHARGES


@<TRIPOS>ATOM
      1 O1         -8.9058   -1.7866   60.7749 O.2     1  ZINC000836820897   -0.5200
      2 C2         -9.7536   -1.0408   61.2255 C.2     1  ZINC000836820897    0.5800
      3 C3        -11.0493   -0.8908   60.5320 C.ar    1  ZINC000836820897   -0.1600
      4 C4        -11.2804    0.2142   59.7103 C.ar    1  ZINC000836820897   -0.0100
      5 C5        -12.4912    0.3490   59.0651 C.ar    1  ZINC000836820897   -0.1700
      6 C6        -13.4785   -0.6100   59.2311 C.ar    1  ZINC000836820897    0.2200
      7 F7        -14.6633   -0.4730   58.5964 F       1  ZINC000836820897   -0.1100
      8 C8        -13.2541   -1.7097   60.0456 C.ar    1  ZINC000836820897   -0.7200
      9 S9        -14.5140   -2.9244   60.2500 S.o2    1  ZINC000836820897    2.7000
     10 O10       -14.3153   -3.4961   61.5356 O.2     1  ZINC000836820897   -0.9400
     11 O11       -15.7320   -2.3100   59.8525 O.2     1  ZINC000836820897   -0.9400
     12 N12       -14.2171   -4.1280   59.1520 N.am    1  ZINC000836820897   -1.0800
     13 C13       -14.1984   -3.8241   57.7191 C.3     1  ZINC000836820897    0.0700
     14 C14       -12.9052   -3.2518   57.1350 C.3     1  ZINC000836820897   -0.1800
     15 C15       -13.3128   -4.6933   56.8240 C.3     1  ZINC000836820897   -0.1900
     16 C16       -12.0454   -1.8568   60.6914 C.ar    1  ZINC000836820897    0.0600
     17 N17        -9.5135   -0.3552   62.3607 N.am    1  ZINC000836820897   -0.6200
     18 C18        -8.2715   -0.4055   63.1457 C.3     1  ZINC000836820897    0.0900
     19 C19        -8.4438    0.5587   64.3383 C.3     1  ZINC000836820897   -0.1600
     20 C20        -9.5546    1.5241   63.8470 C.3     1  ZINC000836820897    0.0800
     21 H21        -9.1382    2.3111   63.2182 H       1  ZINC000836820897    0.1100
     22 F22       -10.2594    2.0683   64.9260 F       1  ZINC000836820897   -0.1900
     23 C23       -10.4506    0.5742   63.0176 C.3     1  ZINC000836820897    0.0800
     24 H24       -10.5121    0.9620   59.5807 H       1  ZINC000836820897    0.1500
     25 H25       -12.6711    1.2035   58.4296 H       1  ZINC000836820897    0.1600
     26 H26       -14.0556   -5.0344   59.4577 H       1  ZINC000836820897    0.4200
     27 H27       -15.1402   -3.4680   57.3017 H       1  ZINC000836820897    0.1400
     28 H28       -12.9961   -2.5189   56.3334 H       1  ZINC000836820897    0.1100
     29 H29       -12.0683   -3.1015   57.8171 H       1  ZINC000836820897    0.1000
     30 H30       -12.7442   -5.4914   57.3013 H       1  ZINC000836820897    0.1000
     31 H31       -13.6720   -4.9088   55.8176 H       1  ZINC000836820897    0.1000
     32 H32       -11.8716   -2.7137   61.3254 H       1  ZINC000836820897    0.1600
     33 H33        -8.1038   -1.4192   63.5098 H       1  ZINC000836820897    0.0800
     34 H34        -7.4305   -0.0868   62.5298 H       1  ZINC000836820897    0.0800
     35 H35        -8.7682    0.0182   65.2275 H       1  ZINC000836820897    0.0900
     36 H36        -7.5188    1.1018   64.5319 H       1  ZINC000836820897    0.1000
     37 H37       -11.0149    1.1375   62.2744 H       1  ZINC000836820897    0.1000
     38 H38       -11.1269    0.0236   63.6714 H       1  ZINC000836820897    0.0900
@<TRIPOS>BOND
     1     1     2    2
     2     2     3    1
     3     2    17   am
     4     3    16   ar
     5     3     4   ar
     6     4     5   ar
     7     4    24    1
     8     5     6   ar
     9     5    25    1
    10     6     7    1
    11     6     8   ar
    12     8     9    1
    13     8    16   ar
    14     9    10    2
    15     9    11    2
    16     9    12   am
    17    12    13    1
    18    12    26    1
    19    13    15    1
    20    13    14    1
    21    13    27    1
    22    14    15    1
    23    14    28    1
    24    14    29    1
    25    15    30    1
    26    15    31    1
    27    16    32    1
    28    17    23    1
    29    17    18    1
    30    18    19    1
    31    18    33    1
    32    18    34    1
    33    19    20    1
    34    19    35    1
    35    19    36    1
    36    20    21    1
    37    20    22    1
    38    20    23    1
    39    23    37    1
    40    23    38    1
@<TRIPOS>SUBSTRUCTURE
     1 ZINC000836820897        1 TEMP              0 ****  ****    0 ROOT


##########                                Name:    ZINC000130059363
##########                DOCK_Rotatable_Bonds:                   4
##########                         Heavy_Atoms:                  29
##########                    Molecular_Weight:             389.497
##########                DOCK_Rotatable_Bonds:                   4
##########                       Formal_Charge:          -0.0100003
##########                     HBond_Acceptors:                   5
##########                        HBond_Donors:                   0
##########                         Heavy_Atoms:                  29
##########                          Grid_Score:          -25.718622
##########                     Grid_vdw_energy:          -25.252739
##########                      Grid_es_energy:           -0.465883
##########           Internal_energy_repulsive:           29.550819

@<TRIPOS>MOLECULE
ZINC000130059363
 56 60 1 0 0
SMALL
USER_CHARGES


@<TRIPOS>ATOM
      1 C1         -9.9219    1.8816   52.3990 C.3     1  ZINC000130059363   -0.1200
      2 C2         -9.1551    1.6869   53.6817 C.ar    1  ZINC000130059363    0.1900
      3 N3         -9.6557    2.1325   54.8130 N.ar    1  ZINC000130059363   -0.4800
      4 C4         -9.0164    1.9835   55.9673 C.ar    1  ZINC000130059363    0.2000
      5 C5         -9.6261    2.5044   57.2138 C.ar    1  ZINC000130059363   -0.0600
      6 C6        -10.8635    3.1458   57.1727 C.ar    1  ZINC000130059363   -0.1000
      7 C7        -11.4264    3.6283   58.3365 C.ar    1  ZINC000130059363   -0.1200
      8 C8        -10.7654    3.4772   59.5424 C.ar    1  ZINC000130059363   -0.1000
      9 C9         -9.5372    2.8422   59.5892 C.ar    1  ZINC000130059363   -0.1300
     10 C10        -8.9673    2.3500   58.4329 C.ar    1  ZINC000130059363   -0.0700
     11 C11        -7.7788    1.3427   56.0220 C.ar    1  ZINC000130059363   -0.1800
     12 C12        -7.2177    0.8598   54.8564 C.ar    1  ZINC000130059363   -0.0400
     13 C13        -7.9229    1.0300   53.6572 C.ar    1  ZINC000130059363   -0.1900
     14 C14        -7.3656    0.5309   52.3836 C.2     1  ZINC000130059363    0.5700
     15 O15        -7.8642   -0.4349   51.8390 O.2     1  ZINC000130059363   -0.5200
     16 N16        -6.3044    1.1462   51.8252 N.am    1  ZINC000130059363   -0.6000
     17 C17        -5.7404    0.6671   50.5552 C.3     1  ZINC000130059363    0.1000
     18 C18        -5.7099    1.8372   49.5673 C.3     1  ZINC000130059363   -0.1500
     19 C19        -4.9623    3.0146   50.1827 C.3     1  ZINC000130059363    0.1500
     20 H20        -4.9895    3.8420   49.4736 H       1  ZINC000130059363    0.0700
     21 C21        -5.6368    3.4732   51.4742 C.3     1  ZINC000130059363   -0.1100
     22 H22        -6.6407    3.8405   51.2619 H       1  ZINC000130059363    0.1000
     23 C23        -4.7819    4.5957   52.0838 C.3     1  ZINC000130059363   -0.1200
     24 C24        -3.4567    3.9878   52.5503 C.3     1  ZINC000130059363   -0.1400
     25 C25        -2.8668    3.1349   51.4645 C.2     1  ZINC000130059363    0.5200
     26 O26        -1.6933    2.8386   51.5410 O.2     1  ZINC000130059363   -0.5400
     27 N27        -3.5696    2.6794   50.4342 N.am    1  ZINC000130059363   -0.5700
     28 C28        -2.8970    1.8059   49.4693 C.3     1  ZINC000130059363    0.0700
     29 C29        -2.9449    2.2125   47.9951 C.3     1  ZINC000130059363   -0.1800
     30 C30        -1.6405    2.3462   48.7835 C.3     1  ZINC000130059363   -0.1600
     31 C31        -5.6896    2.3137   52.4688 C.3     1  ZINC000130059363    0.1100
     32 H32       -10.5056    0.9863   52.1853 H       1  ZINC000130059363    0.0800
     33 H33       -10.5913    2.7357   52.5020 H       1  ZINC000130059363    0.0800
     34 H34        -9.2234    2.0637   51.5823 H       1  ZINC000130059363    0.1000
     35 H35       -11.3803    3.2649   56.2318 H       1  ZINC000130059363    0.1300
     36 H36       -12.3848    4.1252   58.3060 H       1  ZINC000130059363    0.1300
     37 H37       -11.2095    3.8568   60.4506 H       1  ZINC000130059363    0.1300
     38 H38        -9.0256    2.7274   60.5334 H       1  ZINC000130059363    0.1300
     39 H39        -8.0084    1.8544   58.4706 H       1  ZINC000130059363    0.1400
     40 H40        -7.2653    1.2259   56.9649 H       1  ZINC000130059363    0.1400
     41 H41        -6.2605    0.3597   54.8691 H       1  ZINC000130059363    0.1400
     42 H42        -4.7276    0.2988   50.7192 H       1  ZINC000130059363    0.0700
     43 H43        -6.3626   -0.1340   50.1562 H       1  ZINC000130059363    0.0900
     44 H44        -5.2053    1.5259   48.6526 H       1  ZINC000130059363    0.0900
     45 H45        -6.7304    2.1390   49.3319 H       1  ZINC000130059363    0.0800
     46 H46        -4.5908    5.3617   51.3323 H       1  ZINC000130059363    0.0800
     47 H47        -5.3040    5.0354   52.9335 H       1  ZINC000130059363    0.0900
     48 H48        -2.7601    4.7884   52.7992 H       1  ZINC000130059363    0.1000
     49 H49        -3.6317    3.3761   53.4352 H       1  ZINC000130059363    0.1000
     50 H50        -2.9264    0.7409   49.6992 H       1  ZINC000130059363    0.1100
     51 H51        -3.0060    1.4147   47.2548 H       1  ZINC000130059363    0.1100
     52 H52        -3.4770    3.1298   47.7431 H       1  ZINC000130059363    0.1000
     53 H53        -1.3144    3.3514   49.0501 H       1  ZINC000130059363    0.1000
     54 H54        -0.8435    1.6364   48.5618 H       1  ZINC000130059363    0.1000
     55 H55        -6.2799    2.6054   53.3374 H       1  ZINC000130059363    0.1000
     56 H56        -4.6779    2.0578   52.7839 H       1  ZINC000130059363    0.0700
@<TRIPOS>BOND
     1     1     2    1
     2     1    32    1
     3     1    33    1
     4     1    34    1
     5     2    13   ar
     6     2     3   ar
     7     3     4   ar
     8     4     5    1
     9     4    11   ar
    10     5    10   ar
    11     5     6   ar
    12     6     7   ar
    13     6    35    1
    14     7     8   ar
    15     7    36    1
    16     8     9   ar
    17     8    37    1
    18     9    10   ar
    19     9    38    1
    20    10    39    1
    21    11    12   ar
    22    11    40    1
    23    12    13   ar
    24    12    41    1
    25    13    14    1
    26    14    15    2
    27    14    16   am
    28    16    31    1
    29    16    17    1
    30    17    18    1
    31    17    42    1
    32    17    43    1
    33    18    19    1
    34    18    44    1
    35    18    45    1
    36    19    20    1
    37    19    27    1
    38    19    21    1
    39    21    22    1
    40    21    23    1
    41    21    31    1
    42    23    24    1
    43    23    46    1
    44    23    47    1
    45    24    25    1
    46    24    48    1
    47    24    49    1
    48    25    26    2
    49    25    27   am
    50    27    28    1
    51    28    30    1
    52    28    29    1
    53    28    50    1
    54    29    30    1
    55    29    51    1
    56    29    52    1
    57    30    53    1
    58    30    54    1
    59    31    55    1
    60    31    56    1
@<TRIPOS>SUBSTRUCTURE
     1 ZINC000130059363        1 TEMP              0 ****  ****    0 ROOT


##########                                Name:    ZINC000506388363
##########                DOCK_Rotatable_Bonds:                   5
##########                         Heavy_Atoms:                  29
##########                    Molecular_Weight:             416.858
##########                DOCK_Rotatable_Bonds:                   5
##########                       Formal_Charge:         7.07805e-07
##########                     HBond_Acceptors:                   8
##########                        HBond_Donors:                   1
##########                         Heavy_Atoms:                  29
##########                          Grid_Score:          -25.704882
##########                     Grid_vdw_energy:          -24.779572
##########                      Grid_es_energy:           -0.925310
##########           Internal_energy_repulsive:           11.314317

@<TRIPOS>MOLECULE
ZINC000506388363
 48 51 1 0 0
SMALL
USER_CHARGES


@<TRIPOS>ATOM
      1 O1         -8.4092    4.7275   55.6922 O.2     1  ZINC000506388363   -0.5300
      2 C2         -7.9160    3.6775   55.3293 C.2     1  ZINC000506388363    0.5600
      3 C3         -7.2034    3.6035   54.0359 C.ar    1  ZINC000506388363   -0.1200
      4 C4         -5.8173    3.4434   54.0077 C.ar    1  ZINC000506388363   -0.0900
      5 C5         -5.1577    3.3745   52.7977 C.ar    1  ZINC000506388363   -0.1100
      6 C6         -5.8669    3.4643   51.6136 C.ar    1  ZINC000506388363   -0.0900
      7 C7         -7.2425    3.6232   51.6339 C.ar    1  ZINC000506388363   -0.0400
      8 Cl8        -8.1239    3.7344   50.1424 Cl      1  ZINC000506388363   -0.0600
      9 C9         -7.9148    3.6877   52.8380 C.ar    1  ZINC000506388363   -0.0600
     10 N10        -8.0139    2.5821   56.1084 N.am    1  ZINC000506388363   -0.6100
     11 C11        -8.7236    2.6324   57.3957 C.3     1  ZINC000506388363    0.1000
     12 C12        -9.7371    1.4839   57.4380 C.3     1  ZINC000506388363    0.0400
     13 N13        -9.0486    0.2169   57.1573 N.3     1  ZINC000506388363   -0.5300
     14 C14        -9.9486   -0.9268   57.3569 C.3     1  ZINC000506388363    0.1200
     15 C15        -9.8143   -1.4309   58.7708 C.2     1  ZINC000506388363   -0.2100
     16 C16        -8.8685   -1.0600   59.6611 C.2     1  ZINC000506388363    0.0600
     17 N17        -9.0901   -1.7341   60.8099 N.pl3   1  ZINC000506388363   -0.4700
     18 N18       -10.2124   -2.5519   60.6262 N.2     1  ZINC000506388363   -0.2700
     19 C19       -10.6562   -2.3682   59.4007 C.2     1  ZINC000506388363    0.1300
     20 C20       -11.8297   -3.0382   58.7876 C.ar    1  ZINC000506388363   -0.0700
     21 C21       -11.6610   -3.8770   57.6857 C.ar    1  ZINC000506388363    0.1500
     22 F22       -10.4277   -4.0823   57.1737 F       1  ZINC000506388363   -0.1200
     23 C23       -12.7586   -4.4981   57.1191 C.ar    1  ZINC000506388363   -0.1600
     24 C24       -14.0216   -4.2894   57.6423 C.ar    1  ZINC000506388363   -0.0500
     25 C25       -14.1958   -3.4591   58.7344 C.ar    1  ZINC000506388363   -0.1600
     26 C26       -13.1058   -2.8364   59.3140 C.ar    1  ZINC000506388363    0.1600
     27 F27       -13.2775   -2.0255   60.3808 F       1  ZINC000506388363   -0.1200
     28 C28        -8.4789    0.2085   55.8033 C.3     1  ZINC000506388363    0.0400
     29 C29        -7.4192    1.3033   55.6911 C.3     1  ZINC000506388363    0.1200
     30 H30        -5.2619    3.3739   54.9314 H       1  ZINC000506388363    0.1400
     31 H31        -4.0851    3.2506   52.7752 H       1  ZINC000506388363    0.1400
     32 H32        -5.3456    3.4106   50.6693 H       1  ZINC000506388363    0.1400
     33 H33        -8.9875    3.8113   52.8531 H       1  ZINC000506388363    0.1400
     34 H34        -8.0098    2.5211   58.2119 H       1  ZINC000506388363    0.0800
     35 H35        -9.2453    3.5848   57.4892 H       1  ZINC000506388363    0.1000
     36 H36       -10.1941    1.4383   58.4265 H       1  ZINC000506388363    0.0900
     37 H37       -10.5091    1.6522   56.6873 H       1  ZINC000506388363    0.0400
     38 H38       -10.9776   -0.6148   57.1787 H       1  ZINC000506388363    0.1000
     39 H39        -9.6845   -1.7228   56.6608 H       1  ZINC000506388363    0.0400
     40 H40        -8.0745   -0.3494   59.4850 H       1  ZINC000506388363    0.1800
     41 H41        -8.5633   -1.6645   61.6214 H       1  ZINC000506388363    0.4400
     42 H42       -12.6294   -5.1475   56.2658 H       1  ZINC000506388363    0.1500
     43 H43       -14.8757   -4.7767   57.1958 H       1  ZINC000506388363    0.1500
     44 H44       -15.1847   -3.3000   59.1380 H       1  ZINC000506388363    0.1500
     45 H45        -8.0236   -0.7620   55.6063 H       1  ZINC000506388363    0.0900
     46 H46        -9.2686    0.3947   55.0754 H       1  ZINC000506388363    0.0400
     47 H47        -7.0762    1.3766   54.6592 H       1  ZINC000506388363    0.1000
     48 H48        -6.5784    1.0672   56.3435 H       1  ZINC000506388363    0.0800
@<TRIPOS>BOND
     1     1     2    2
     2     2     3    1
     3     2    10   am
     4     3     9   ar
     5     3     4   ar
     6     4     5   ar
     7     4    30    1
     8     5     6   ar
     9     5    31    1
    10     6     7   ar
    11     6    32    1
    12     7     8    1
    13     7     9   ar
    14     9    33    1
    15    10    29    1
    16    10    11    1
    17    11    12    1
    18    11    34    1
    19    11    35    1
    20    12    13    1
    21    12    36    1
    22    12    37    1
    23    13    14    1
    24    13    28    1
    25    14    15    1
    26    14    38    1
    27    14    39    1
    28    15    19    1
    29    15    16    2
    30    16    17    1
    31    16    40    1
    32    17    18    1
    33    17    41    1
    34    18    19    2
    35    19    20    1
    36    20    26   ar
    37    20    21   ar
    38    21    22    1
    39    21    23   ar
    40    23    24   ar
    41    23    42    1
    42    24    25   ar
    43    24    43    1
    44    25    26   ar
    45    25    44    1
    46    26    27    1
    47    28    29    1
    48    28    45    1
    49    28    46    1
    50    29    47    1
    51    29    48    1
@<TRIPOS>SUBSTRUCTURE
     1 ZINC000506388363        1 TEMP              0 ****  ****    0 ROOT


##########                                Name:    ZINC000375477402
##########                DOCK_Rotatable_Bonds:                   5
##########                         Heavy_Atoms:                  26
##########                    Molecular_Weight:             378.342
##########                DOCK_Rotatable_Bonds:                   5
##########                       Formal_Charge:         -1.2666e-07
##########                     HBond_Acceptors:                   9
##########                        HBond_Donors:                   1
##########                         Heavy_Atoms:                  26
##########                          Grid_Score:          -25.546453
##########                     Grid_vdw_energy:          -24.851589
##########                      Grid_es_energy:           -0.694864
##########           Internal_energy_repulsive:           10.435342

@<TRIPOS>MOLECULE
ZINC000375477402
 45 47 1 0 0
SMALL
USER_CHARGES


@<TRIPOS>ATOM
      1 O1         -6.8227    1.4829   58.4457 O.2     1  ZINC000375477402   -0.5600
      2 C2         -7.8328    0.9308   58.0540 C.2     1  ZINC000375477402    0.7200
      3 N3         -8.1833    1.0095   56.7550 N.am    1  ZINC000375477402   -0.7300
      4 C4         -7.3504    1.7652   55.8160 C.3     1  ZINC000375477402    0.1800
      5 H5         -6.3352    1.8359   56.2065 H       1  ZINC000375477402    0.1500
      6 C6         -7.3285    1.0601   54.4843 C.ar    1  ZINC000375477402   -0.1300
      7 C7         -8.3350    0.1714   54.1562 C.ar    1  ZINC000375477402   -0.0800
      8 C8         -8.3163   -0.4762   52.9349 C.ar    1  ZINC000375477402   -0.0900
      9 C9         -7.2910   -0.2364   52.0395 C.ar    1  ZINC000375477402   -0.1100
     10 C10        -6.2817    0.6528   52.3651 C.ar    1  ZINC000375477402    0.0800
     11 F11        -5.2792    0.8878   51.4904 F       1  ZINC000375477402   -0.1200
     12 C12        -6.3035    1.3067   53.5875 C.ar    1  ZINC000375477402    0.1000
     13 F13        -5.3194    2.1752   53.9076 F       1  ZINC000375477402   -0.1100
     14 C14        -7.9280    3.1709   55.6394 C.3     1  ZINC000375477402    0.4400
     15 F15        -9.2942    3.0811   55.3522 F       1  ZINC000375477402   -0.1600
     16 F16        -7.7464    3.9012   56.8187 F       1  ZINC000375477402   -0.1700
     17 F17        -7.2714    3.8158   54.5857 F       1  ZINC000375477402   -0.1800
     18 N18        -8.5990    0.2357   58.9178 N.am    1  ZINC000375477402   -0.6300
     19 C19        -8.3342    0.0675   60.3590 C.3     1  ZINC000375477402    0.1000
     20 C20        -9.7198   -0.2314   60.9868 C.3     1  ZINC000375477402   -0.1200
     21 C21       -10.3803   -1.0879   59.8835 C.3     1  ZINC000375477402   -0.1100
     22 C22        -9.8425   -0.4763   58.5810 C.3     1  ZINC000375477402    0.1400
     23 C23        -9.9511   -2.5434   60.0199 C.3     1  ZINC000375477402   -0.1100
     24 C24       -10.6696   -3.3812   58.9557 C.3     1  ZINC000375477402   -0.1600
     25 C25       -12.1808   -3.1809   59.0979 C.3     1  ZINC000375477402    0.0600
     26 O26       -12.4936   -1.7935   58.9566 O.3     1  ZINC000375477402   -0.3800
     27 C27       -11.8958   -0.9576   59.9515 C.3     1  ZINC000375477402    0.0800
     28 H28        -8.9870    0.5657   56.4418 H       1  ZINC000375477402    0.4000
     29 H29        -9.1367   -0.0174   54.8547 H       1  ZINC000375477402    0.1400
     30 H30        -9.1034   -1.1705   52.6803 H       1  ZINC000375477402    0.1500
     31 H31        -7.2774   -0.7432   51.0859 H       1  ZINC000375477402    0.1500
     32 H32        -7.6547   -0.7686   60.5245 H       1  ZINC000375477402    0.0700
     33 H33        -7.9182    0.9839   60.7775 H       1  ZINC000375477402    0.0700
     34 H34        -9.6157   -0.7982   61.9119 H       1  ZINC000375477402    0.0900
     35 H35       -10.2795    0.6887   61.1548 H       1  ZINC000375477402    0.0800
     36 H36       -10.5740    0.2178   58.1670 H       1  ZINC000375477402    0.0800
     37 H37        -9.6277   -1.2661   57.8611 H       1  ZINC000375477402    0.0700
     38 H38        -8.8732   -2.6203   59.8776 H       1  ZINC000375477402    0.0700
     39 H39       -10.2157   -2.9098   61.0118 H       1  ZINC000375477402    0.0700
     40 H40       -10.3512   -3.0613   57.9636 H       1  ZINC000375477402    0.0700
     41 H41       -10.4268   -4.4346   59.0959 H       1  ZINC000375477402    0.0800
     42 H42       -12.6971   -3.7502   58.3250 H       1  ZINC000375477402    0.1000
     43 H43       -12.5023   -3.5274   60.0801 H       1  ZINC000375477402    0.0500
     44 H44       -12.2425   -1.2633   60.9386 H       1  ZINC000375477402    0.0600
     45 H45       -12.1794    0.0795   59.7725 H       1  ZINC000375477402    0.1000
@<TRIPOS>BOND
     1     1     2    2
     2     2     3   am
     3     2    18   am
     4     3     4    1
     5     3    28    1
     6     4     5    1
     7     4     6    1
     8     4    14    1
     9     6    12   ar
    10     6     7   ar
    11     7     8   ar
    12     7    29    1
    13     8     9   ar
    14     8    30    1
    15     9    10   ar
    16     9    31    1
    17    10    11    1
    18    10    12   ar
    19    12    13    1
    20    14    15    1
    21    14    16    1
    22    14    17    1
    23    18    22    1
    24    18    19    1
    25    19    20    1
    26    19    32    1
    27    19    33    1
    28    20    21    1
    29    20    34    1
    30    20    35    1
    31    21    27    1
    32    21    22    1
    33    21    23    1
    34    22    36    1
    35    22    37    1
    36    23    24    1
    37    23    38    1
    38    23    39    1
    39    24    25    1
    40    24    40    1
    41    24    41    1
    42    25    26    1
    43    25    42    1
    44    25    43    1
    45    26    27    1
    46    27    44    1
    47    27    45    1
@<TRIPOS>SUBSTRUCTURE
     1 ZINC000375477402        1 TEMP              0 ****  ****    0 ROOT


##########                                Name:    ZINC000011498449
##########                DOCK_Rotatable_Bonds:                   5
##########                         Heavy_Atoms:                  21
##########                    Molecular_Weight:             331.198
##########                DOCK_Rotatable_Bonds:                   5
##########                       Formal_Charge:         1.30385e-07
##########                     HBond_Acceptors:                   7
##########                        HBond_Donors:                   1
##########                         Heavy_Atoms:                  21
##########                          Grid_Score:          -25.453588
##########                     Grid_vdw_energy:          -25.360800
##########                      Grid_es_energy:           -0.092789
##########           Internal_energy_repulsive:           10.176000

@<TRIPOS>MOLECULE
ZINC000011498449
 37 38 1 0 0
SMALL
USER_CHARGES


@<TRIPOS>ATOM
      1 C1          2.1537    1.1284   50.5814 C.3     1  ZINC000011498449   -0.1500
      2 C2          0.6701    1.5027   50.5722 C.3     1  ZINC000011498449    0.0700
      3 H3          0.0774    0.6494   50.9018 H       1  ZINC000011498449    0.0600
      4 C4          0.2510    1.8994   49.1520 C.3     1  ZINC000011498449    0.0800
      5 N5         -1.1201    2.4314   49.2044 N.am    1  ZINC000011498449   -0.6100
      6 C6         -2.0742    1.9736   48.3700 C.2     1  ZINC000011498449    0.5100
      7 O7         -1.8090    1.1093   47.5615 O.2     1  ZINC000011498449   -0.5300
      8 C8         -3.4707    2.5354   48.4416 C.3     1  ZINC000011498449    0.1000
      9 N9         -4.1786    1.9410   49.5782 N.am    1  ZINC000011498449   -0.7200
     10 C10        -5.5248    1.9825   49.6300 C.2     1  ZINC000011498449    0.5600
     11 O11        -6.1517    2.5118   48.7330 O.2     1  ZINC000011498449   -0.5100
     12 C12        -6.2384    1.3847   50.7769 C.ar    1  ZINC000011498449   -0.1300
     13 C13        -6.3851   -0.0009   50.8664 C.ar    1  ZINC000011498449   -0.0600
     14 C14        -7.0518   -0.5531   51.9395 C.ar    1  ZINC000011498449   -0.1100
     15 C15        -7.5760    0.2633   52.9285 C.ar    1  ZINC000011498449    0.0000
     16 Cl16       -8.4135   -0.4407   54.2763 Cl      1  ZINC000011498449   -0.0400
     17 C17        -7.4346    1.6382   52.8466 C.ar    1  ZINC000011498449   -0.1100
     18 C18        -6.7646    2.2035   51.7801 C.ar    1  ZINC000011498449    0.0300
     19 Cl19       -6.5877    3.9274   51.6785 Cl      1  ZINC000011498449   -0.0100
     20 C20        -1.4186    3.4778   50.1951 C.3     1  ZINC000011498449    0.0700
     21 C21        -0.9180    3.0042   51.5643 C.3     1  ZINC000011498449    0.0500
     22 O22         0.4505    2.6060   51.4544 O.3     1  ZINC000011498449   -0.3700
     23 H23         2.4515    0.8482   51.5918 H       1  ZINC000011498449    0.0700
     24 H24         2.3205    0.2884   49.9072 H       1  ZINC000011498449    0.0800
     25 H25         2.7458    1.9821   50.2517 H       1  ZINC000011498449    0.0700
     26 H26         0.9271    2.6641   48.7698 H       1  ZINC000011498449    0.0800
     27 H27         0.2807    1.0246   48.5026 H       1  ZINC000011498449    0.1000
     28 H28        -3.4212    3.6168   48.5697 H       1  ZINC000011498449    0.1000
     29 H29        -4.0037    2.3028   47.5197 H       1  ZINC000011498449    0.1000
     30 H30        -3.6785    1.5177   50.2934 H       1  ZINC000011498449    0.4100
     31 H31        -5.9774   -0.6390   50.0963 H       1  ZINC000011498449    0.1500
     32 H32        -7.1659   -1.6247   52.0092 H       1  ZINC000011498449    0.1500
     33 H33        -7.8455    2.2694   53.6207 H       1  ZINC000011498449    0.1500
     34 H34        -0.9105    4.4015   49.9179 H       1  ZINC000011498449    0.0900
     35 H35        -2.4944    3.6482   50.2363 H       1  ZINC000011498449    0.1000
     36 H36        -1.0037    3.8177   52.2847 H       1  ZINC000011498449    0.1100
     37 H37        -1.5172    2.1569   51.8979 H       1  ZINC000011498449    0.0600
@<TRIPOS>BOND
     1     1     2    1
     2     1    23    1
     3     1    24    1
     4     1    25    1
     5     2     3    1
     6     2    22    1
     7     2     4    1
     8     4     5    1
     9     4    26    1
    10     4    27    1
    11     5     6   am
    12     5    20    1
    13     6     7    2
    14     6     8    1
    15     8     9    1
    16     8    28    1
    17     8    29    1
    18     9    10   am
    19     9    30    1
    20    10    11    2
    21    10    12    1
    22    12    18   ar
    23    12    13   ar
    24    13    14   ar
    25    13    31    1
    26    14    15   ar
    27    14    32    1
    28    15    16    1
    29    15    17   ar
    30    17    18   ar
    31    17    33    1
    32    18    19    1
    33    20    21    1
    34    20    34    1
    35    20    35    1
    36    21    22    1
    37    21    36    1
    38    21    37    1
@<TRIPOS>SUBSTRUCTURE
     1 ZINC000011498449        1 TEMP              0 ****  ****    0 ROOT


##########                                Name:    ZINC000942661662
##########                DOCK_Rotatable_Bonds:                   6
##########                         Heavy_Atoms:                  25
##########                    Molecular_Weight:             343.426
##########                DOCK_Rotatable_Bonds:                   6
##########                       Formal_Charge:           0.0399997
##########                     HBond_Acceptors:                   6
##########                        HBond_Donors:                   1
##########                         Heavy_Atoms:                  25
##########                          Grid_Score:          -25.428217
##########                     Grid_vdw_energy:          -26.310163
##########                      Grid_es_energy:            0.881947
##########           Internal_energy_repulsive:           30.697853

@<TRIPOS>MOLECULE
ZINC000942661662
 50 52 1 0 0
SMALL
USER_CHARGES


@<TRIPOS>ATOM
      1 C1          0.6193    3.4072   49.7758 C.3     1  ZINC000942661662   -0.1700
      2 C2         -0.2356    3.4605   48.5081 C.3     1  ZINC000942661662    0.1000
      3 N3         -1.3469    2.5135   48.6284 N.am    1  ZINC000942661662   -0.6000
      4 C4         -1.4149    1.4467   47.8077 C.2     1  ZINC000942661662    0.6000
      5 O5         -2.3375    0.6605   47.9075 O.2     1  ZINC000942661662   -0.5200
      6 C6         -0.3714    1.2327   46.7892 C.2     1  ZINC000942661662   -0.2400
      7 C7         -0.5192    1.2825   45.4340 C.2     1  ZINC000942661662    0.0700
      8 C8         -1.8016    1.5716   44.6972 C.3     1  ZINC000942661662   -0.0900
      9 O9          0.6666    1.0315   44.8709 O.3     1  ZINC000942661662   -0.1700
     10 C10         1.6047    0.8149   45.8060 C.2     1  ZINC000942661662   -0.0300
     11 C11         1.0477    0.9269   47.0216 C.2     1  ZINC000942661662   -0.1900
     12 C12        -2.3843    2.7263   49.6408 C.3     1  ZINC000942661662    0.1400
     13 H13        -2.2076    3.6513   50.1898 H       1  ZINC000942661662    0.1100
     14 C14        -2.4757    1.5153   50.6063 C.3     1  ZINC000942661662   -0.1400
     15 C15        -3.9387    1.5720   51.0943 C.3     1  ZINC000942661662    0.1000
     16 N16        -4.7038    2.3291   50.0928 N.am    1  ZINC000942661662   -0.6200
     17 C17        -6.0184    2.6183   50.1625 C.2     1  ZINC000942661662    0.6100
     18 O18        -6.5496    3.2537   49.2710 O.2     1  ZINC000942661662   -0.5200
     19 C19        -6.8085    2.1671   51.3129 C.2     1  ZINC000942661662   -0.0600
     20 C20        -6.8922    2.7914   52.5392 C.2     1  ZINC000942661662   -0.0700
     21 C21        -6.1909    4.0613   52.9474 C.3     1  ZINC000942661662   -0.0900
     22 C22        -7.7510    2.0244   53.3329 C.2     1  ZINC000942661662   -0.2100
     23 C23        -8.1675    0.9685   52.5939 C.2     1  ZINC000942661662    0.0500
     24 C24        -9.1070   -0.1128   53.0621 C.3     1  ZINC000942661662   -0.0900
     25 N25        -7.6064    1.0464   51.3626 N.pl3   1  ZINC000942661662   -0.5400
     26 C26        -3.7946    2.7216   49.0001 C.3     1  ZINC000942661662    0.0900
     27 H27         1.4462    4.1117   49.6864 H       1  ZINC000942661662    0.0700
     28 H28         0.0075    3.6726   50.6380 H       1  ZINC000942661662    0.0600
     29 H29         1.0132    2.3993   49.9063 H       1  ZINC000942661662    0.0600
     30 H30        -0.6295    4.4684   48.3776 H       1  ZINC000942661662    0.0900
     31 H31         0.3762    3.1951   47.6458 H       1  ZINC000942661662    0.0800
     32 H32        -1.8919    2.6454   44.5327 H       1  ZINC000942661662    0.0900
     33 H33        -1.7927    1.0563   43.7367 H       1  ZINC000942661662    0.0900
     34 H34        -2.6475    1.2222   45.2892 H       1  ZINC000942661662    0.1000
     35 H35         2.6432    0.5911   45.6112 H       1  ZINC000942661662    0.2100
     36 H36         1.5398    0.8089   47.9757 H       1  ZINC000942661662    0.1600
     37 H37        -2.2821    0.5832   50.0754 H       1  ZINC000942661662    0.1000
     38 H38        -1.7857    1.6350   51.4416 H       1  ZINC000942661662    0.0900
     39 H39        -4.3398    0.5622   51.1814 H       1  ZINC000942661662    0.0700
     40 H40        -3.9886    2.0774   52.0586 H       1  ZINC000942661662    0.0700
     41 H41        -6.8229    4.9174   52.7112 H       1  ZINC000942661662    0.0700
     42 H42        -5.9945    4.0395   54.0193 H       1  ZINC000942661662    0.0600
     43 H43        -5.2482    4.1455   52.4068 H       1  ZINC000942661662    0.0800
     44 H44        -8.0318    2.2363   54.3541 H       1  ZINC000942661662    0.1400
     45 H45       -10.1340    0.1771   52.8401 H       1  ZINC000942661662    0.0800
     46 H46        -8.8733   -1.0450   52.5477 H       1  ZINC000942661662    0.0700
     47 H47        -8.9932   -0.2526   54.1371 H       1  ZINC000942661662    0.0900
     48 H48        -7.7402    0.4147   50.6389 H       1  ZINC000942661662    0.4100
     49 H49        -4.0492    3.7160   48.6334 H       1  ZINC000942661662    0.0800
     50 H50        -3.8398    1.9945   48.1893 H       1  ZINC000942661662    0.1000
@<TRIPOS>BOND
     1     1     2    1
     2     1    27    1
     3     1    28    1
     4     1    29    1
     5     2     3    1
     6     2    30    1
     7     2    31    1
     8     3     4   am
     9     3    12    1
    10     4     5    2
    11     4     6    1
    12     6    11    1
    13     6     7    2
    14     7     8    1
    15     7     9    1
    16     8    32    1
    17     8    33    1
    18     8    34    1
    19     9    10    1
    20    10    11    2
    21    10    35    1
    22    11    36    1
    23    12    13    1
    24    12    26    1
    25    12    14    1
    26    14    15    1
    27    14    37    1
    28    14    38    1
    29    15    16    1
    30    15    39    1
    31    15    40    1
    32    16    17   am
    33    16    26    1
    34    17    18    2
    35    17    19    1
    36    19    25    1
    37    19    20    2
    38    20    21    1
    39    20    22    1
    40    21    41    1
    41    21    42    1
    42    21    43    1
    43    22    23    2
    44    22    44    1
    45    23    24    1
    46    23    25    1
    47    24    45    1
    48    24    46    1
    49    24    47    1
    50    25    48    1
    51    26    49    1
    52    26    50    1
@<TRIPOS>SUBSTRUCTURE
     1 ZINC000942661662        1 TEMP              0 ****  ****    0 ROOT


##########                                Name:    ZINC000331626032
##########                DOCK_Rotatable_Bonds:                   5
##########                         Heavy_Atoms:                  25
##########                    Molecular_Weight:              339.44
##########                DOCK_Rotatable_Bonds:                   5
##########                       Formal_Charge:        -2.16067e-07
##########                     HBond_Acceptors:                   6
##########                        HBond_Donors:                   2
##########                         Heavy_Atoms:                  25
##########                          Grid_Score:          -25.382170
##########                     Grid_vdw_energy:          -25.769295
##########                      Grid_es_energy:            0.387125
##########           Internal_energy_repulsive:           25.177580

@<TRIPOS>MOLECULE
ZINC000331626032
 50 52 1 0 0
SMALL
USER_CHARGES


@<TRIPOS>ATOM
      1 C1        -13.7832   -5.6120   57.1654 C.3     1  ZINC000331626032   -0.2000
      2 C2        -13.7235   -4.0839   57.2147 C.3     1  ZINC000331626032    0.0700
      3 H3        -13.7360   -3.6869   56.1997 H       1  ZINC000331626032    0.1100
      4 C4        -14.9147   -3.5589   57.9740 C.2     1  ZINC000331626032    0.5200
      5 O5        -15.2908   -4.1248   58.9788 O.2     1  ZINC000331626032   -0.5000
      6 N6        -15.5621   -2.4608   57.5366 N.am    1  ZINC000331626032   -0.5800
      7 C7        -16.7199   -1.9503   58.2747 C.3     1  ZINC000331626032    0.0800
      8 C8        -15.1281   -1.8080   56.3775 C.ar    1  ZINC000331626032    0.1400
      9 C9        -15.4546   -2.3185   55.1278 C.ar    1  ZINC000331626032   -0.1000
     10 C10       -15.0248   -1.6719   53.9856 C.ar    1  ZINC000331626032   -0.1100
     11 C11       -14.2696   -0.5178   54.0853 C.ar    1  ZINC000331626032   -0.1200
     12 C12       -13.9425   -0.0073   55.3281 C.ar    1  ZINC000331626032   -0.1100
     13 C13       -14.3749   -0.6454   56.4740 C.ar    1  ZINC000331626032   -0.1200
     14 N14       -12.4884   -3.6636   57.8898 N.3     1  ZINC000331626032   -0.5100
     15 C15       -11.5442   -3.0674   56.9362 C.3     1  ZINC000331626032    0.0500
     16 C16       -10.2187   -2.7760   57.6433 C.3     1  ZINC000331626032   -0.1100
     17 C17       -10.4684   -1.8166   58.8103 C.3     1  ZINC000331626032   -0.1100
     18 C18       -11.4916   -2.4404   59.7634 C.3     1  ZINC000331626032   -0.0400
     19 H19       -11.0885   -3.3658   60.1750 H       1  ZINC000331626032    0.1000
     20 C20       -11.7869   -1.4777   60.8847 C.ar    1  ZINC000331626032    0.2300
     21 C21       -10.7525   -0.8971   61.6012 C.ar    1  ZINC000331626032   -0.2900
     22 C22       -11.0677   -0.0171   62.6249 C.ar    1  ZINC000331626032    0.1900
     23 N23       -12.3384    0.2407   62.8858 N.ar    1  ZINC000331626032   -0.5700
     24 C24       -13.3039   -0.3315   62.1814 C.ar    1  ZINC000331626032    0.5700
     25 N25       -14.6231   -0.0387   62.4811 N.pl3   1  ZINC000331626032   -0.8200
     26 N26       -13.0365   -1.1726   61.1934 N.ar    1  ZINC000331626032   -0.5700
     27 C27       -12.7802   -2.7416   58.9949 C.3     1  ZINC000331626032    0.0700
     28 H28       -13.7707   -6.0089   58.1805 H       1  ZINC000331626032    0.0700
     29 H29       -14.6996   -5.9238   56.6645 H       1  ZINC000331626032    0.0800
     30 H30       -12.9216   -5.9917   56.6162 H       1  ZINC000331626032    0.0700
     31 H31       -16.3858   -1.2321   59.0236 H       1  ZINC000331626032    0.0600
     32 H32       -17.4053   -1.4611   57.5825 H       1  ZINC000331626032    0.0800
     33 H33       -17.2303   -2.7779   58.7675 H       1  ZINC000331626032    0.0800
     34 H34       -16.0438   -3.2202   55.0494 H       1  ZINC000331626032    0.1200
     35 H35       -15.2783   -2.0684   53.0136 H       1  ZINC000331626032    0.1300
     36 H36       -13.9344   -0.0142   53.1906 H       1  ZINC000331626032    0.1300
     37 H37       -13.3519    0.8940   55.4026 H       1  ZINC000331626032    0.1300
     38 H38       -14.1190   -0.2462   57.4444 H       1  ZINC000331626032    0.1200
     39 H39       -11.3720   -3.7615   56.1135 H       1  ZINC000331626032    0.0900
     40 H40       -11.9598   -2.1382   56.5463 H       1  ZINC000331626032    0.0300
     41 H41        -9.7956   -3.7066   58.0215 H       1  ZINC000331626032    0.0800
     42 H42        -9.5232   -2.3191   56.9391 H       1  ZINC000331626032    0.0700
     43 H43        -9.5342   -1.6402   59.3432 H       1  ZINC000331626032    0.0700
     44 H44       -10.8551   -0.8716   58.4285 H       1  ZINC000331626032    0.0700
     45 H45        -9.7231   -1.1256   61.3673 H       1  ZINC000331626032    0.1400
     46 H46       -10.2850    0.4522   63.2026 H       1  ZINC000331626032    0.1700
     47 H47       -14.8318    0.5788   63.1993 H       1  ZINC000331626032    0.4100
     48 H48       -15.3389   -0.4512   61.9728 H       1  ZINC000331626032    0.4100
     49 H49       -13.1900   -1.8139   58.5953 H       1  ZINC000331626032    0.0400
     50 H50       -13.5058   -3.1990   59.6675 H       1  ZINC000331626032    0.0800
@<TRIPOS>BOND
     1     1     2    1
     2     1    28    1
     3     1    29    1
     4     1    30    1
     5     2     3    1
     6     2     4    1
     7     2    14    1
     8     4     5    2
     9     4     6   am
    10     6     7    1
    11     6     8    1
    12     7    31    1
    13     7    32    1
    14     7    33    1
    15     8    13   ar
    16     8     9   ar
    17     9    10   ar
    18     9    34    1
    19    10    11   ar
    20    10    35    1
    21    11    12   ar
    22    11    36    1
    23    12    13   ar
    24    12    37    1
    25    13    38    1
    26    14    27    1
    27    14    15    1
    28    15    16    1
    29    15    39    1
    30    15    40    1
    31    16    17    1
    32    16    41    1
    33    16    42    1
    34    17    18    1
    35    17    43    1
    36    17    44    1
    37    18    19    1
    38    18    20    1
    39    18    27    1
    40    20    26   ar
    41    20    21   ar
    42    21    22   ar
    43    21    45    1
    44    22    23   ar
    45    22    46    1
    46    23    24   ar
    47    24    25    1
    48    24    26   ar
    49    25    47    1
    50    25    48    1
    51    27    49    1
    52    27    50    1
@<TRIPOS>SUBSTRUCTURE
     1 ZINC000331626032        1 TEMP              0 ****  ****    0 ROOT


##########                                Name:    ZINC000845755710
##########                DOCK_Rotatable_Bonds:                   3
##########                         Heavy_Atoms:                  24
##########                    Molecular_Weight:             349.814
##########                DOCK_Rotatable_Bonds:                   3
##########                       Formal_Charge:         -0.00999974
##########                     HBond_Acceptors:                   6
##########                        HBond_Donors:                   0
##########                         Heavy_Atoms:                  24
##########                          Grid_Score:          -25.377794
##########                     Grid_vdw_energy:          -25.323244
##########                      Grid_es_energy:           -0.054551
##########           Internal_energy_repulsive:           13.448959

@<TRIPOS>MOLECULE
ZINC000845755710
 44 47 1 0 0
SMALL
USER_CHARGES


@<TRIPOS>ATOM
      1 C1         -8.7321    0.7097   63.6757 C.3     1  ZINC000845755710   -0.1700
      2 C2         -9.4996    0.9174   62.3685 C.3     1  ZINC000845755710    0.2600
      3 C3         -9.0946   -0.1580   61.3584 C.3     1  ZINC000845755710   -0.0900
      4 C4        -10.2088   -1.2016   61.2504 C.3     1  ZINC000845755710   -0.1300
      5 C5         -9.7852   -2.2947   60.2644 C.3     1  ZINC000845755710    0.1100
      6 N6         -9.4225   -1.6651   58.9874 N.am    1  ZINC000845755710   -0.6000
      7 C7         -9.9937   -2.0695   57.8356 C.2     1  ZINC000845755710    0.5900
      8 O8         -9.6847   -1.5400   56.7848 O.2     1  ZINC000845755710   -0.5200
      9 C9        -10.9905   -3.1509   57.8490 C.2     1  ZINC000845755710   -0.2200
     10 C10       -10.7556   -4.4860   57.7333 C.2     1  ZINC000845755710    0.0600
     11 O11       -11.9114   -5.1576   57.7910 O.3     1  ZINC000845755710   -0.1800
     12 C12       -12.9586   -4.3207   57.9453 C.ar    1  ZINC000845755710    0.0500
     13 C13       -14.3284   -4.5245   58.0550 C.ar    1  ZINC000845755710   -0.0900
     14 C14       -15.1754   -3.4474   58.2076 C.ar    1  ZINC000845755710   -0.0800
     15 C15       -14.6739   -2.1545   58.2529 C.ar    1  ZINC000845755710   -0.0400
     16 Cl16      -15.7577   -0.8119   58.4451 Cl      1  ZINC000845755710   -0.0600
     17 C17       -13.3162   -1.9330   58.1461 C.ar    1  ZINC000845755710   -0.0500
     18 C18       -12.4532   -3.0133   57.9974 C.ar    1  ZINC000845755710   -0.0900
     19 C19        -8.4257   -0.5858   58.9900 C.3     1  ZINC000845755710    0.1000
     20 C20        -8.8645    0.4883   59.9904 C.3     1  ZINC000845755710   -0.1300
     21 O21       -10.9125    0.8328   62.6193 O.3     1  ZINC000845755710   -0.3700
     22 C22       -11.3405    2.2050   62.7933 C.3     1  ZINC000845755710    0.0100
     23 C23       -10.4427    2.9466   61.7716 C.3     1  ZINC000845755710    0.0200
     24 O24        -9.2019    2.2149   61.8361 O.3     1  ZINC000845755710   -0.3800
     25 H25        -9.0185    1.4803   64.3915 H       1  ZINC000845755710    0.0600
     26 H26        -8.9700   -0.2723   64.0845 H       1  ZINC000845755710    0.0800
     27 H27        -7.6613    0.7732   63.4824 H       1  ZINC000845755710    0.0800
     28 H28        -8.1758   -0.6410   61.6910 H       1  ZINC000845755710    0.0900
     29 H29       -10.3882   -1.6448   62.2300 H       1  ZINC000845755710    0.0800
     30 H30       -11.1214   -0.7239   60.8941 H       1  ZINC000845755710    0.0800
     31 H31        -8.9258   -2.8336   60.6632 H       1  ZINC000845755710    0.0700
     32 H32       -10.6128   -2.9868   60.1085 H       1  ZINC000845755710    0.1000
     33 H33        -9.7815   -4.9365   57.6127 H       1  ZINC000845755710    0.2200
     34 H34       -14.7298   -5.5266   58.0202 H       1  ZINC000845755710    0.1500
     35 H35       -16.2395   -3.6116   58.2924 H       1  ZINC000845755710    0.1500
     36 H36       -12.9256   -0.9267   58.1813 H       1  ZINC000845755710    0.1400
     37 H37        -7.4553   -0.9851   59.2849 H       1  ZINC000845755710    0.0800
     38 H38        -8.3562   -0.1501   57.9932 H       1  ZINC000845755710    0.0900
     39 H39        -9.7898    0.9501   59.6458 H       1  ZINC000845755710    0.0700
     40 H40        -8.0871    1.2478   60.0729 H       1  ZINC000845755710    0.0800
     41 H41       -12.3948    2.3197   62.5418 H       1  ZINC000845755710    0.1100
     42 H42       -11.1432    2.5495   63.8084 H       1  ZINC000845755710    0.0800
     43 H43       -10.8711    2.8911   60.7708 H       1  ZINC000845755710    0.0800
     44 H44       -10.2941    3.9840   62.0712 H       1  ZINC000845755710    0.1000
@<TRIPOS>BOND
     1     1     2    1
     2     1    25    1
     3     1    26    1
     4     1    27    1
     5     2    24    1
     6     2     3    1
     7     2    21    1
     8     3    20    1
     9     3     4    1
    10     3    28    1
    11     4     5    1
    12     4    29    1
    13     4    30    1
    14     5     6    1
    15     5    31    1
    16     5    32    1
    17     6     7   am
    18     6    19    1
    19     7     8    2
    20     7     9    1
    21     9    18    1
    22     9    10    2
    23    10    11    1
    24    10    33    1
    25    11    12    1
    26    12    18   ar
    27    12    13   ar
    28    13    14   ar
    29    13    34    1
    30    14    15   ar
    31    14    35    1
    32    15    16    1
    33    15    17   ar
    34    17    18   ar
    35    17    36    1
    36    19    20    1
    37    19    37    1
    38    19    38    1
    39    20    39    1
    40    20    40    1
    41    21    22    1
    42    22    23    1
    43    22    41    1
    44    22    42    1
    45    23    24    1
    46    23    43    1
    47    23    44    1
@<TRIPOS>SUBSTRUCTURE
     1 ZINC000845755710        1 TEMP              0 ****  ****    0 ROOT


##########                                Name:    ZINC001010141213
##########                DOCK_Rotatable_Bonds:                   4
##########                         Heavy_Atoms:                  24
##########                    Molecular_Weight:             330.346
##########                DOCK_Rotatable_Bonds:                   4
##########                       Formal_Charge:          -0.0100003
##########                     HBond_Acceptors:                   9
##########                        HBond_Donors:                   1
##########                         Heavy_Atoms:                  24
##########                          Grid_Score:          -25.367947
##########                     Grid_vdw_energy:          -22.269146
##########                      Grid_es_energy:           -3.098801
##########           Internal_energy_repulsive:           15.352429

@<TRIPOS>MOLECULE
ZINC001010141213
 42 44 1 0 0
SMALL
USER_CHARGES


@<TRIPOS>ATOM
      1 C1         -7.9409    4.8882   52.6641 C.3     1  ZINC001010141213   -0.0800
      2 C2         -8.0870    3.8402   53.7371 C.2     1  ZINC001010141213   -0.1500
      3 C3         -7.9009    2.4749   53.6073 C.2     1  ZINC001010141213   -0.0400
      4 C4         -7.5184    1.7477   52.3865 C.2     1  ZINC001010141213    0.6000
      5 O5         -8.3672    1.1810   51.7249 O.2     1  ZINC001010141213   -0.5100
      6 N6         -6.2273    1.7098   52.0013 N.am    1  ZINC001010141213   -0.6100
      7 C7         -5.8317    0.9927   50.7811 C.3     1  ZINC001010141213    0.0900
      8 C8         -5.0709    1.9620   49.8679 C.3     1  ZINC001010141213    0.0700
      9 N9         -4.0337    2.6374   50.6603 N.am    1  ZINC001010141213   -0.6000
     10 C10        -2.7429    2.6003   50.2746 C.2     1  ZINC001010141213    0.5900
     11 O11        -1.8939    3.1628   50.9382 O.2     1  ZINC001010141213   -0.5200
     12 C12        -2.3594    1.8754   49.0440 C.2     1  ZINC001010141213    0.0300
     13 N13        -1.7035    0.7400   49.1302 N.2     1  ZINC001010141213   -0.1800
     14 N14        -1.3481    0.0732   48.0922 N.am    1  ZINC001010141213   -0.4400
     15 C15        -1.6272    0.4986   46.8461 C.2     1  ZINC001010141213    0.4800
     16 O16        -1.2761   -0.1581   45.8799 O.2     1  ZINC001010141213   -0.5100
     17 C17        -2.3298    1.7107   46.6646 C.2     1  ZINC001010141213   -0.1800
     18 C18        -2.7051    2.4040   47.7769 C.2     1  ZINC001010141213   -0.0400
     19 C19        -4.4294    3.3546   51.8806 C.3     1  ZINC001010141213    0.1000
     20 C20        -5.1910    2.3899   52.7907 C.3     1  ZINC001010141213    0.1000
     21 N21        -8.1434    1.9376   54.8396 N.pl3   1  ZINC001010141213   -0.2700
     22 C22        -8.0633    0.5127   55.1700 C.3     1  ZINC001010141213    0.0900
     23 N23        -8.4519    2.8726   55.6646 N.2     1  ZINC001010141213   -0.2800
     24 C24        -8.4330    4.0409   55.0753 C.2     1  ZINC001010141213    0.0100
     25 H25        -6.9125    5.2491   52.6463 H       1  ZINC001010141213    0.0700
     26 H26        -8.1903    4.4542   51.6959 H       1  ZINC001010141213    0.0600
     27 H27        -8.6140    5.7194   52.8740 H       1  ZINC001010141213    0.0700
     28 H28        -5.1865    0.1539   51.0426 H       1  ZINC001010141213    0.0800
     29 H29        -6.7206    0.6273   50.2669 H       1  ZINC001010141213    0.1000
     30 H30        -4.6055    1.4078   49.0528 H       1  ZINC001010141213    0.1400
     31 H31        -5.7616    2.7016   49.4630 H       1  ZINC001010141213    0.0800
     32 H32        -0.8651   -0.7598   48.2093 H       1  ZINC001010141213    0.4500
     33 H33        -2.5663    2.0745   45.6756 H       1  ZINC001010141213    0.1700
     34 H34        -3.2444    3.3359   47.6934 H       1  ZINC001010141213    0.1700
     35 H35        -3.5404    3.7200   52.3947 H       1  ZINC001010141213    0.1100
     36 H36        -5.0745    4.1934   51.6190 H       1  ZINC001010141213    0.0800
     37 H37        -5.6558    2.9455   53.6053 H       1  ZINC001010141213    0.1100
     38 H38        -4.5023    1.6489   53.1962 H       1  ZINC001010141213    0.0800
     39 H39        -7.0777    0.2891   55.5785 H       1  ZINC001010141213    0.0900
     40 H40        -8.8268    0.2674   55.9084 H       1  ZINC001010141213    0.1000
     41 H41        -8.2259   -0.0789   54.2691 H       1  ZINC001010141213    0.0900
     42 H42        -8.6528    4.9908   55.5396 H       1  ZINC001010141213    0.1900
@<TRIPOS>BOND
     1     1     2    1
     2     1    25    1
     3     1    26    1
     4     1    27    1
     5     2    24    1
     6     2     3    2
     7     3     4    1
     8     3    21    1
     9     4     5    2
    10     4     6   am
    11     6    20    1
    12     6     7    1
    13     7     8    1
    14     7    28    1
    15     7    29    1
    16     8     9    1
    17     8    30    1
    18     8    31    1
    19     9    10   am
    20     9    19    1
    21    10    11    2
    22    10    12    1
    23    12    18    1
    24    12    13    2
    25    13    14    1
    26    14    15   am
    27    14    32    1
    28    15    16    2
    29    15    17    1
    30    17    18    2
    31    17    33    1
    32    18    34    1
    33    19    20    1
    34    19    35    1
    35    19    36    1
    36    20    37    1
    37    20    38    1
    38    21    22    1
    39    21    23    1
    40    22    39    1
    41    22    40    1
    42    22    41    1
    43    23    24    2
    44    24    42    1
@<TRIPOS>SUBSTRUCTURE
     1 ZINC001010141213        1 TEMP              0 ****  ****    0 ROOT


##########                                Name:    ZINC000345028113
##########                DOCK_Rotatable_Bonds:                   5
##########                         Heavy_Atoms:                  21
##########                    Molecular_Weight:             331.838
##########                DOCK_Rotatable_Bonds:                   5
##########                       Formal_Charge:         4.47035e-07
##########                     HBond_Acceptors:                   6
##########                        HBond_Donors:                   0
##########                         Heavy_Atoms:                  21
##########                          Grid_Score:          -25.292482
##########                     Grid_vdw_energy:          -24.812143
##########                      Grid_es_energy:           -0.480339
##########           Internal_energy_repulsive:           12.172286

@<TRIPOS>MOLECULE
ZINC000345028113
 40 41 1 0 0
SMALL
USER_CHARGES


@<TRIPOS>ATOM
      1 C1         -7.7722    3.5385   49.6580 C.3     1  ZINC000345028113   -0.1700
      2 C2         -7.0941    3.1270   50.9664 C.3     1  ZINC000345028113    0.1400
      3 H3         -7.8157    3.1794   51.7816 H       1  ZINC000345028113    0.1100
      4 C4         -5.9261    4.0757   51.2565 C.3     1  ZINC000345028113   -0.0700
      5 H5         -5.4654    3.8078   52.2073 H       1  ZINC000345028113    0.0900
      6 C6         -6.4392    5.5156   51.3230 C.3     1  ZINC000345028113   -0.1400
      7 S7         -4.7020    3.9226   49.9219 S.3     1  ZINC000345028113   -0.2400
      8 C8         -4.3641    2.1370   49.9090 C.3     1  ZINC000345028113   -0.1100
      9 C9         -5.6903    1.3846   49.7553 C.3     1  ZINC000345028113    0.1000
     10 N10        -6.5923    1.7573   50.8462 N.am    1  ZINC000345028113   -0.6100
     11 C11        -6.9650    0.8291   51.7496 C.2     1  ZINC000345028113    0.5200
     12 O12        -6.5543   -0.3081   51.6552 O.2     1  ZINC000345028113   -0.5300
     13 C13        -7.8919    1.2044   52.8770 C.3     1  ZINC000345028113   -0.1400
     14 C14        -7.9493    0.0611   53.8921 C.3     1  ZINC000345028113    0.0700
     15 O15        -9.0312    0.2831   54.7989 O.3     1  ZINC000345028113   -0.3000
     16 C16        -8.7486    0.2096   56.1269 C.ar    1  ZINC000345028113    0.1300
     17 C17        -7.7948    1.0495   56.6809 C.ar    1  ZINC000345028113   -0.1700
     18 C18        -7.5088    0.9741   58.0309 C.ar    1  ZINC000345028113   -0.1100
     19 C19        -8.1739    0.0607   58.8305 C.ar    1  ZINC000345028113    0.0800
     20 F20        -7.8933   -0.0112   60.1500 F       1  ZINC000345028113   -0.1300
     21 C21        -9.1270   -0.7793   58.2793 C.ar    1  ZINC000345028113   -0.1100
     22 C22        -9.4191   -0.7027   56.9304 C.ar    1  ZINC000345028113   -0.0400
     23 Cl23      -10.6138   -1.7555   56.2392 Cl      1  ZINC000345028113   -0.0400
     24 H24        -8.6031    2.8638   49.4516 H       1  ZINC000345028113    0.0600
     25 H25        -8.1459    4.5584   49.7476 H       1  ZINC000345028113    0.0800
     26 H26        -7.0506    3.4862   48.8427 H       1  ZINC000345028113    0.0800
     27 H27        -7.1810    5.6006   52.1172 H       1  ZINC000345028113    0.0800
     28 H28        -5.6070    6.1886   51.5294 H       1  ZINC000345028113    0.0700
     29 H29        -6.8952    5.7831   50.3697 H       1  ZINC000345028113    0.0700
     30 H30        -3.7080    1.8953   49.0728 H       1  ZINC000345028113    0.1200
     31 H31        -3.8870    1.8486   50.8457 H       1  ZINC000345028113    0.0900
     32 H32        -6.1474    1.6454   48.8008 H       1  ZINC000345028113    0.0900
     33 H33        -5.5048    0.3110   49.7880 H       1  ZINC000345028113    0.1000
     34 H34        -7.5230    2.1061   53.3658 H       1  ZINC000345028113    0.1100
     35 H35        -8.8903    1.3887   52.4804 H       1  ZINC000345028113    0.1100
     36 H36        -8.1020   -0.8825   53.3683 H       1  ZINC000345028113    0.0800
     37 H37        -7.0122    0.0209   54.4474 H       1  ZINC000345028113    0.0800
     38 H38        -7.2752    1.7621   56.0577 H       1  ZINC000345028113    0.1500
     39 H39        -6.7655    1.6282   58.4623 H       1  ZINC000345028113    0.1500
     40 H40        -9.6450   -1.4917   58.9042 H       1  ZINC000345028113    0.1500
@<TRIPOS>BOND
     1     1     2    1
     2     1    24    1
     3     1    25    1
     4     1    26    1
     5     2     3    1
     6     2    10    1
     7     2     4    1
     8     4     5    1
     9     4     6    1
    10     4     7    1
    11     6    27    1
    12     6    28    1
    13     6    29    1
    14     7     8    1
    15     8     9    1
    16     8    30    1
    17     8    31    1
    18     9    10    1
    19     9    32    1
    20     9    33    1
    21    10    11   am
    22    11    12    2
    23    11    13    1
    24    13    14    1
    25    13    34    1
    26    13    35    1
    27    14    15    1
    28    14    36    1
    29    14    37    1
    30    15    16    1
    31    16    22   ar
    32    16    17   ar
    33    17    18   ar
    34    17    38    1
    35    18    19   ar
    36    18    39    1
    37    19    20    1
    38    19    21   ar
    39    21    22   ar
    40    21    40    1
    41    22    23    1
@<TRIPOS>SUBSTRUCTURE
     1 ZINC000345028113        1 TEMP              0 ****  ****    0 ROOT


##########                                Name:    ZINC000098105561
##########                DOCK_Rotatable_Bonds:                   5
##########                         Heavy_Atoms:                  25
##########                    Molecular_Weight:             368.336
##########                DOCK_Rotatable_Bonds:                   5
##########                       Formal_Charge:         2.98023e-08
##########                     HBond_Acceptors:                   9
##########                        HBond_Donors:                   0
##########                         Heavy_Atoms:                  25
##########                          Grid_Score:          -25.245565
##########                     Grid_vdw_energy:          -24.295496
##########                      Grid_es_energy:           -0.950070
##########           Internal_energy_repulsive:           13.976543

@<TRIPOS>MOLECULE
ZINC000098105561
 36 38 1 0 0
SMALL
USER_CHARGES


@<TRIPOS>ATOM
      1 C1         -4.6242    3.0992   49.6426 C.3     1  ZINC000098105561   -0.0800
      2 C2         -3.5149    2.2769   49.0392 C.2     1  ZINC000098105561    0.0900
      3 C3         -3.1366    1.0981   49.5390 C.2     1  ZINC000098105561   -0.2700
      4 S4         -1.8217    0.4793   48.5430 S.3     1  ZINC000098105561    0.1600
      5 C5         -1.9075    1.8677   47.5490 C.2     1  ZINC000098105561    0.2500
      6 N6         -1.0982    2.1079   46.4474 N.am    1  ZINC000098105561   -0.5200
      7 C7         -1.5458    1.7129   45.1096 C.3     1  ZINC000098105561    0.0500
      8 C8         -1.0868    0.2825   44.8199 C.3     1  ZINC000098105561    0.4400
      9 F9         -1.6944   -0.5947   45.7247 F       1  ZINC000098105561   -0.1700
     10 F10        -1.4496   -0.0686   43.5151 F       1  ZINC000098105561   -0.1700
     11 F11         0.3033    0.2024   44.9548 F       1  ZINC000098105561   -0.1700
     12 C12         0.0996    2.7045   46.6083 C.2     1  ZINC000098105561    0.5800
     13 O13         0.8081    2.9148   45.6438 O.2     1  ZINC000098105561   -0.4100
     14 C14         0.5523    3.1039   47.9608 C.2     1  ZINC000098105561    0.0800
     15 C15         1.0212    4.3630   48.1431 C.2     1  ZINC000098105561   -0.2000
     16 C16         1.4845    4.7458   49.4877 C.2     1  ZINC000098105561    0.4200
     17 O17         1.7061    5.9056   49.7883 O.2     1  ZINC000098105561   -0.4300
     18 C18         1.6644    3.6399   50.4499 C.ar    1  ZINC000098105561   -0.2200
     19 C19         2.3326    3.8273   51.6580 C.ar    1  ZINC000098105561   -0.0300
     20 C20         2.4820    2.7648   52.5226 C.ar    1  ZINC000098105561   -0.1400
     21 C21         1.9713    1.5177   52.1916 C.ar    1  ZINC000098105561   -0.0500
     22 C22         1.3064    1.3207   51.0006 C.ar    1  ZINC000098105561   -0.1400
     23 C23         1.1402    2.3793   50.1137 C.ar    1  ZINC000098105561    0.1400
     24 O24         0.4759    2.2073   48.9538 O.3     1  ZINC000098105561   -0.2300
     25 N25        -2.8426    2.6610   47.9708 N.2     1  ZINC000098105561   -0.4600
     26 H26        -5.5736    2.8190   49.1864 H       1  ZINC000098105561    0.0800
     27 H27        -4.6691    2.9166   50.7163 H       1  ZINC000098105561    0.0800
     28 H28        -4.4323    4.1568   49.4616 H       1  ZINC000098105561    0.0800
     29 H29        -3.5620    0.6096   50.4031 H       1  ZINC000098105561    0.1900
     30 H30        -2.6337    1.7622   45.0612 H       1  ZINC000098105561    0.1700
     31 H31        -1.1182    2.3887   44.3690 H       1  ZINC000098105561    0.1400
     32 H32         1.0544    5.0663   47.3243 H       1  ZINC000098105561    0.1800
     33 H33         2.7309    4.7977   51.9147 H       1  ZINC000098105561    0.1400
     34 H34         2.9986    2.9030   53.4610 H       1  ZINC000098105561    0.1400
     35 H35         2.0967    0.6913   52.8755 H       1  ZINC000098105561    0.1400
     36 H36         0.9142    0.3446   50.7560 H       1  ZINC000098105561    0.1400
@<TRIPOS>BOND
     1     1     2    1
     2     1    26    1
     3     1    27    1
     4     1    28    1
     5     2    25    1
     6     2     3    2
     7     3     4    1
     8     3    29    1
     9     4     5    1
    10     5     6    1
    11     5    25    2
    12     6     7    1
    13     6    12   am
    14     7     8    1
    15     7    30    1
    16     7    31    1
    17     8     9    1
    18     8    10    1
    19     8    11    1
    20    12    13    2
    21    12    14    1
    22    14    24    1
    23    14    15    2
    24    15    16    1
    25    15    32    1
    26    16    17    2
    27    16    18    1
    28    18    23   ar
    29    18    19   ar
    30    19    20   ar
    31    19    33    1
    32    20    21   ar
    33    20    34    1
    34    21    22   ar
    35    21    35    1
    36    22    23   ar
    37    22    36    1
    38    23    24    1
@<TRIPOS>SUBSTRUCTURE
     1 ZINC000098105561        1 TEMP              0 ****  ****    0 ROOT


##########                                Name:    ZINC000154446008
##########                DOCK_Rotatable_Bonds:                   5
##########                         Heavy_Atoms:                  24
##########                    Molecular_Weight:              349.41
##########                DOCK_Rotatable_Bonds:                   5
##########                       Formal_Charge:          -0.0199999
##########                     HBond_Acceptors:                   8
##########                        HBond_Donors:                   0
##########                         Heavy_Atoms:                  24
##########                          Grid_Score:          -24.939068
##########                     Grid_vdw_energy:          -25.377047
##########                      Grid_es_energy:            0.437978
##########           Internal_energy_repulsive:           13.096892

@<TRIPOS>MOLECULE
ZINC000154446008
 43 45 1 0 0
SMALL
USER_CHARGES


@<TRIPOS>ATOM
      1 O1         -3.8185    3.0465   53.0218 O.2     1  ZINC000154446008   -0.5000
      2 C2         -4.4765    2.5243   52.1412 C.2     1  ZINC000154446008    0.5900
      3 C3         -3.8960    2.3307   50.8092 C.2     1  ZINC000154446008   -0.2300
      4 C4         -3.9260    3.2420   49.7914 C.2     1  ZINC000154446008   -0.0600
      5 C5         -3.3038    2.8004   48.6478 C.2     1  ZINC000154446008   -0.0500
      6 C6         -2.7819    1.5705   48.7243 C.2     1  ZINC000154446008   -0.2100
      7 N7         -2.0680    0.8919   47.6193 N.pl3   1  ZINC000154446008    0.0500
      8 O8         -1.6363   -0.2363   47.7752 O.2     1  ZINC000154446008   -0.1300
      9 O9         -1.9122    1.4618   46.5541 O.2     1  ZINC000154446008   -0.1500
     10 S10        -3.0429    0.8918   50.2678 S.3     1  ZINC000154446008    0.3500
     11 N11        -5.7372    2.1190   52.3924 N.am    1  ZINC000154446008   -0.6100
     12 C12        -6.5393    1.4760   51.3421 C.3     1  ZINC000154446008    0.0800
     13 C13        -7.0284    0.1183   51.8612 C.3     1  ZINC000154446008    0.0900
     14 N14        -7.6253    0.3110   53.1903 N.am    1  ZINC000154446008   -0.6100
     15 C15        -8.8857   -0.0952   53.4416 C.2     1  ZINC000154446008    0.5500
     16 O16        -9.5395   -0.6266   52.5646 O.2     1  ZINC000154446008   -0.5300
     17 C17        -9.4702    0.1042   54.7767 C.2     1  ZINC000154446008   -0.1500
     18 C18        -9.2840   -0.8329   55.6809 C.2     1  ZINC000154446008   -0.1100
     19 C19        -9.8297   -0.7657   57.0775 C.3     1  ZINC000154446008   -0.1000
     20 C20       -10.2344    0.6706   57.4162 C.3     1  ZINC000154446008   -0.1200
     21 C21       -11.1112    1.2102   56.2795 C.3     1  ZINC000154446008   -0.1200
     22 C22       -10.2393    1.3679   55.0303 C.3     1  ZINC000154446008   -0.0700
     23 C23        -6.8232    0.9540   54.2405 C.3     1  ZINC000154446008    0.1000
     24 C24        -6.3321    2.3067   53.7230 C.3     1  ZINC000154446008    0.1000
     25 H25        -4.3920    4.2125   49.8768 H       1  ZINC000154446008    0.1800
     26 H26        -3.2412    3.4018   47.7530 H       1  ZINC000154446008    0.1800
     27 H27        -7.3958    2.1049   51.0993 H       1  ZINC000154446008    0.0900
     28 H28        -5.9267    1.3286   50.4527 H       1  ZINC000154446008    0.0900
     29 H29        -7.7765   -0.2862   51.1794 H       1  ZINC000154446008    0.1100
     30 H30        -6.1865   -0.5702   51.9346 H       1  ZINC000154446008    0.0800
     31 H31        -8.7054   -1.7012   55.4021 H       1  ZINC000154446008    0.1100
     32 H32       -10.7017   -1.4148   57.1564 H       1  ZINC000154446008    0.0900
     33 H33        -9.0669   -1.1014   57.7801 H       1  ZINC000154446008    0.0800
     34 H34       -10.7970    0.6821   58.3497 H       1  ZINC000154446008    0.0700
     35 H35        -9.3421    1.2887   57.5156 H       1  ZINC000154446008    0.0700
     36 H36       -11.9218    0.5100   56.0782 H       1  ZINC000154446008    0.0700
     37 H37       -11.5224    2.1792   56.5627 H       1  ZINC000154446008    0.0700
     38 H38        -9.5460    2.1964   55.1757 H       1  ZINC000154446008    0.0800
     39 H39       -10.8749    1.5781   54.1702 H       1  ZINC000154446008    0.0700
     40 H40        -7.4357    1.1015   55.1299 H       1  ZINC000154446008    0.1100
     41 H41        -5.9667    0.3251   54.4833 H       1  ZINC000154446008    0.0800
     42 H42        -5.5842    2.7100   54.4057 H       1  ZINC000154446008    0.1100
     43 H43        -7.1725    2.9967   53.6481 H       1  ZINC000154446008    0.0800
@<TRIPOS>BOND
     1     1     2    2
     2     2     3    1
     3     2    11   am
     4     3    10    1
     5     3     4    2
     6     4     5    1
     7     4    25    1
     8     5     6    2
     9     5    26    1
    10     6     7    1
    11     6    10    1
    12     7     8    2
    13     7     9    2
    14    11    24    1
    15    11    12    1
    16    12    13    1
    17    12    27    1
    18    12    28    1
    19    13    14    1
    20    13    29    1
    21    13    30    1
    22    14    15   am
    23    14    23    1
    24    15    16    2
    25    15    17    1
    26    17    22    1
    27    17    18    2
    28    18    19    1
    29    18    31    1
    30    19    20    1
    31    19    32    1
    32    19    33    1
    33    20    21    1
    34    20    34    1
    35    20    35    1
    36    21    22    1
    37    21    36    1
    38    21    37    1
    39    22    38    1
    40    22    39    1
    41    23    24    1
    42    23    40    1
    43    23    41    1
    44    24    42    1
    45    24    43    1
@<TRIPOS>SUBSTRUCTURE
     1 ZINC000154446008        1 TEMP              0 ****  ****    0 ROOT


##########                                Name:    ZINC001135312623
##########                DOCK_Rotatable_Bonds:                   3
##########                         Heavy_Atoms:                  25
##########                    Molecular_Weight:             341.323
##########                DOCK_Rotatable_Bonds:                   3
##########                       Formal_Charge:        -1.78814e-07
##########                     HBond_Acceptors:                   8
##########                        HBond_Donors:                   2
##########                         Heavy_Atoms:                  25
##########                          Grid_Score:          -24.848574
##########                     Grid_vdw_energy:          -24.173201
##########                      Grid_es_energy:           -0.675374
##########           Internal_energy_repulsive:          160.037933

@<TRIPOS>MOLECULE
ZINC001135312623
 40 42 1 0 0
SMALL
USER_CHARGES


@<TRIPOS>ATOM
      1 C1         -1.1559    4.0666   51.6427 C.3     1  ZINC001135312623   -0.1300
      2 C2         -2.6169    3.8889   51.3191 C.ar    1  ZINC001135312623   -0.0600
      3 C3         -3.5797    4.3183   52.2110 C.ar    1  ZINC001135312623   -0.1000
      4 C4         -4.9208    4.1551   51.9150 C.ar    1  ZINC001135312623   -0.0300
      5 C5         -5.9688    4.6249   52.8907 C.3     1  ZINC001135312623   -0.1300
      6 C6         -5.3021    3.5625   50.7254 C.ar    1  ZINC001135312623   -0.0200
      7 N7         -6.7385    3.3899   50.4126 N.pl3   1  ZINC001135312623    0.0200
      8 O8         -7.1155    2.4030   49.8064 O.2     1  ZINC001135312623   -0.1500
      9 O9         -7.5436    4.2346   50.7615 O.2     1  ZINC001135312623   -0.1500
     10 C10        -4.3442    3.1316   49.8284 C.ar    1  ZINC001135312623   -0.0700
     11 C11        -2.9968    3.2982   50.1205 C.ar    1  ZINC001135312623    0.1500
     12 N12        -2.0243    2.8632   49.2146 N.am    1  ZINC001135312623   -0.6600
     13 C13        -2.3943    2.2805   48.0569 C.2     1  ZINC001135312623    0.5600
     14 O14        -3.5737    2.1330   47.8003 O.2     1  ZINC001135312623   -0.5000
     15 C15        -1.3683    1.8214   47.1010 C.ar    1  ZINC001135312623   -0.1600
     16 C16        -1.7221    1.5295   45.7810 C.ar    1  ZINC001135312623   -0.0400
     17 C17        -0.7638    1.1003   44.8892 C.ar    1  ZINC001135312623   -0.1500
     18 C18         0.5544    0.9587   45.3034 C.ar    1  ZINC001135312623    0.2000
     19 N19         1.5399    0.5224   44.4175 N.am    1  ZINC001135312623   -0.6700
     20 C20         2.7241    0.0914   44.8962 C.2     1  ZINC001135312623    0.6600
     21 O21         3.5904   -0.2651   44.1222 O.2     1  ZINC001135312623   -0.4900
     22 O22         2.9587    0.0512   46.2202 O.3     1  ZINC001135312623   -0.3400
     23 C23         2.3504    1.0888   47.0373 C.3     1  ZINC001135312623    0.1100
     24 C24         0.9102    1.2509   46.6193 C.ar    1  ZINC001135312623   -0.1800
     25 C25        -0.0386    1.6833   47.5131 C.ar    1  ZINC001135312623    0.0000
     26 H26        -0.8160    5.0327   51.2696 H       1  ZINC001135312623    0.0900
     27 H27        -1.0152    4.0243   52.7228 H       1  ZINC001135312623    0.0800
     28 H28        -0.5797    3.2713   51.1698 H       1  ZINC001135312623    0.0700
     29 H29        -3.2851    4.7816   53.1409 H       1  ZINC001135312623    0.1500
     30 H30        -6.1715    5.6830   52.7248 H       1  ZINC001135312623    0.0900
     31 H31        -6.8844    4.0521   52.7442 H       1  ZINC001135312623    0.0800
     32 H32        -5.6082    4.4794   53.9090 H       1  ZINC001135312623    0.0800
     33 H33        -4.6428    2.6687   48.8995 H       1  ZINC001135312623    0.1700
     34 H34        -1.0835    2.9807   49.4192 H       1  ZINC001135312623    0.4200
     35 H35        -2.7474    1.6400   45.4598 H       1  ZINC001135312623    0.1400
     36 H36        -1.0372    0.8740   43.8692 H       1  ZINC001135312623    0.1500
     37 H37         1.3736    0.5290   43.4620 H       1  ZINC001135312623    0.4300
     38 H38         2.3962    0.8010   48.0876 H       1  ZINC001135312623    0.1300
     39 H39         2.8820    2.0290   46.8899 H       1  ZINC001135312623    0.1000
     40 H40         0.2401    1.9122   48.5312 H       1  ZINC001135312623    0.1500
@<TRIPOS>BOND
     1     1     2    1
     2     1    26    1
     3     1    27    1
     4     1    28    1
     5     2    11   ar
     6     2     3   ar
     7     3     4   ar
     8     3    29    1
     9     4     5    1
    10     4     6   ar
    11     5    30    1
    12     5    31    1
    13     5    32    1
    14     6     7    1
    15     6    10   ar
    16     7     8    2
    17     7     9    2
    18    10    11   ar
    19    10    33    1
    20    11    12    1
    21    12    13   am
    22    12    34    1
    23    13    14    2
    24    13    15    1
    25    15    25   ar
    26    15    16   ar
    27    16    17   ar
    28    16    35    1
    29    17    18   ar
    30    17    36    1
    31    18    24   ar
    32    18    19    1
    33    19    20   am
    34    19    37    1
    35    20    21    2
    36    20    22    1
    37    22    23    1
    38    23    24    1
    39    23    38    1
    40    23    39    1
    41    24    25   ar
    42    25    40    1
@<TRIPOS>SUBSTRUCTURE
     1 ZINC001135312623        1 TEMP              0 ****  ****    0 ROOT


##########                                Name:    ZINC000820901229
##########                DOCK_Rotatable_Bonds:                   3
##########                         Heavy_Atoms:                  18
##########                    Molecular_Weight:             331.233
##########                DOCK_Rotatable_Bonds:                   3
##########                       Formal_Charge:           0.0099999
##########                     HBond_Acceptors:                   5
##########                        HBond_Donors:                   1
##########                         Heavy_Atoms:                  18
##########                          Grid_Score:          -24.812449
##########                     Grid_vdw_energy:          -23.708134
##########                      Grid_es_energy:           -1.104316
##########           Internal_energy_repulsive:           19.303669

@<TRIPOS>MOLECULE
ZINC000820901229
 33 35 1 0 0
SMALL
USER_CHARGES


@<TRIPOS>ATOM
      1 O1         -3.0507    3.1186   49.0592 O.2     1  ZINC000820901229   -0.5300
      2 C2         -3.3270    2.1031   49.6690 C.2     1  ZINC000820901229    0.6000
      3 N3         -2.3739    1.1810   49.9093 N.am    1  ZINC000820901229   -0.7100
      4 C4         -1.0065    1.3990   49.4309 C.3     1  ZINC000820901229    0.1600
      5 H5         -0.3830    0.5427   49.6881 H       1  ZINC000820901229    0.1000
      6 C6         -0.4287    2.6755   50.0630 C.3     1  ZINC000820901229   -0.1300
      7 C7          0.9736    2.9725   49.5401 C.3     1  ZINC000820901229   -0.1100
      8 C8          0.9963    3.0440   48.0043 C.3     1  ZINC000820901229   -0.1100
      9 C9          0.4731    1.7216   47.4829 C.3     1  ZINC000820901229    0.0800
     10 H10         1.0507    0.9031   47.9127 H       1  ZINC000820901229    0.0700
     11 O11         0.3854    1.5571   46.0721 O.3     1  ZINC000820901229   -0.3700
     12 C12        -0.5175    0.4394   45.8740 C.3     1  ZINC000820901229    0.0500
     13 C13        -1.4623    0.3937   47.1028 C.3     1  ZINC000820901229   -0.1500
     14 C14        -1.0116    1.6010   47.9259 C.3     1  ZINC000820901229   -0.1400
     15 H15        -1.5792    2.4905   47.6525 H       1  ZINC000820901229    0.0900
     16 C16        -4.7015    1.8839   50.1499 C.2     1  ZINC000820901229    0.0100
     17 C17        -5.6691    2.8248   50.0758 C.2     1  ZINC000820901229   -0.2200
     18 S18        -7.1117    2.1867   50.7342 S.3     1  ZINC000820901229    0.3100
     19 C19        -6.3409    0.7004   51.0707 C.2     1  ZINC000820901229   -0.0100
     20 Br20       -7.1809   -0.7906   51.8752 Br      1  ZINC000820901229    0.0700
     21 N21        -5.1100    0.7343   50.6949 N.2     1  ZINC000820901229   -0.4100
     22 H22        -2.5934    0.3730   50.3991 H       1  ZINC000820901229    0.4100
     23 H23        -1.0817    3.5161   49.8286 H       1  ZINC000820901229    0.0700
     24 H24        -0.3863    2.5496   51.1448 H       1  ZINC000820901229    0.0700
     25 H25         1.3110    3.9260   49.9465 H       1  ZINC000820901229    0.0800
     26 H26         1.6514    2.1855   49.8705 H       1  ZINC000820901229    0.0700
     27 H27         0.3561    3.8570   47.6616 H       1  ZINC000820901229    0.0700
     28 H28         2.0168    3.2023   47.6556 H       1  ZINC000820901229    0.0800
     29 H29        -1.0987    0.5883   44.9641 H       1  ZINC000820901229    0.0900
     30 H30         0.0499   -0.4889   45.8074 H       1  ZINC000820901229    0.0600
     31 H31        -2.5016    0.5075   46.7940 H       1  ZINC000820901229    0.0800
     32 H32        -1.3244   -0.5325   47.6607 H       1  ZINC000820901229    0.0800
     33 H33        -5.5500    3.8177   49.6679 H       1  ZINC000820901229    0.2000
@<TRIPOS>BOND
     1     1     2    2
     2     2     3   am
     3     2    16    1
     4     3     4    1
     5     3    22    1
     6     4     5    1
     7     4    14    1
     8     4     6    1
     9     6     7    1
    10     6    23    1
    11     6    24    1
    12     7     8    1
    13     7    25    1
    14     7    26    1
    15     8     9    1
    16     8    27    1
    17     8    28    1
    18     9    10    1
    19     9    14    1
    20     9    11    1
    21    11    12    1
    22    12    13    1
    23    12    29    1
    24    12    30    1
    25    13    14    1
    26    13    31    1
    27    13    32    1
    28    14    15    1
    29    16    21    1
    30    16    17    2
    31    17    18    1
    32    17    33    1
    33    18    19    1
    34    19    20    1
    35    19    21    2
@<TRIPOS>SUBSTRUCTURE
     1 ZINC000820901229        1 TEMP              0 ****  ****    0 ROOT


##########                                Name:    ZINC001231746020
##########                DOCK_Rotatable_Bonds:                   3
##########                         Heavy_Atoms:                  19
##########                    Molecular_Weight:             348.667
##########                DOCK_Rotatable_Bonds:                   3
##########                       Formal_Charge:          -0.0399997
##########                     HBond_Acceptors:                   4
##########                        HBond_Donors:                   2
##########                         Heavy_Atoms:                  19
##########                          Grid_Score:          -24.757023
##########                     Grid_vdw_energy:          -24.224663
##########                      Grid_es_energy:           -0.532360
##########           Internal_energy_repulsive:           13.120085

@<TRIPOS>MOLECULE
ZINC001231746020
 38 39 1 0 0
SMALL
USER_CHARGES


@<TRIPOS>ATOM
      1 C1        -10.2777    2.9825   59.7927 C.3     1  ZINC001231746020   -0.1500
      2 C2         -9.9754    1.4845   59.7196 C.3     1  ZINC001231746020   -0.0900
      3 H3        -10.7287    0.9321   60.2814 H       1  ZINC001231746020    0.0800
      4 C4         -9.9890    1.0366   58.2825 C.3     1  ZINC001231746020   -0.1400
      5 C5        -10.4568   -0.4181   58.0970 C.3     1  ZINC001231746020   -0.0100
      6 N6         -9.8909   -1.3525   59.0934 N.4     1  ZINC001231746020   -0.3800
      7 H7        -10.4009   -1.2581   59.9590 H       1  ZINC001231746020    0.4100
      8 C8        -10.0406   -2.7274   58.5985 C.3     1  ZINC001231746020    0.0700
      9 C9        -11.4798   -3.1547   58.7297 C.ar    1  ZINC001231746020   -0.3100
     10 C10       -11.9686   -4.1825   57.9450 C.ar    1  ZINC001231746020   -0.0300
     11 C11       -13.2886   -4.5769   58.0636 C.ar    1  ZINC001231746020   -0.1600
     12 Cl12      -13.9018   -5.8676   57.0778 Cl      1  ZINC001231746020   -0.0800
     13 C13       -14.1229   -3.9395   58.9712 C.ar    1  ZINC001231746020    0.3100
     14 O14       -15.4210   -4.3254   59.0903 O.3     1  ZINC001231746020   -0.6300
     15 C15       -13.6294   -2.9077   59.7573 C.ar    1  ZINC001231746020   -0.2100
     16 Br16      -14.7624   -2.0361   60.9954 Br      1  ZINC001231746020   -0.0600
     17 C17       -12.3075   -2.5217   59.6388 C.ar    1  ZINC001231746020   -0.0200
     18 C18        -8.4938   -1.0928   59.3429 C.3     1  ZINC001231746020   -0.0200
     19 C19        -8.3946   -0.2108   60.5981 C.3     1  ZINC001231746020   -0.1800
     20 C20        -8.5727    1.2083   60.3164 C.3     1  ZINC001231746020    0.1000
     21 H21        -8.4597    1.7737   61.2414 H       1  ZINC001231746020    0.0700
     22 O22        -7.5749    1.6305   59.3847 O.3     1  ZINC001231746020   -0.5600
     23 H23       -11.2600    3.1764   59.3619 H       1  ZINC001231746020    0.0600
     24 H24        -9.5209    3.5335   59.2342 H       1  ZINC001231746020    0.0700
     25 H25       -10.2674    3.3049   60.8339 H       1  ZINC001231746020    0.0600
     26 H26       -10.6537    1.6915   57.7191 H       1  ZINC001231746020    0.1000
     27 H27        -8.9814    1.1316   57.8777 H       1  ZINC001231746020    0.1000
     28 H28       -11.5440   -0.4469   58.1698 H       1  ZINC001231746020    0.1200
     29 H29       -10.1677   -0.7532   57.1010 H       1  ZINC001231746020    0.1200
     30 H30        -9.7427   -2.7710   57.5508 H       1  ZINC001231746020    0.1200
     31 H31        -9.4086   -3.3952   59.1839 H       1  ZINC001231746020    0.1200
     32 H32       -11.3188   -4.6781   57.2388 H       1  ZINC001231746020    0.1100
     33 H33       -11.9216   -1.7223   60.2539 H       1  ZINC001231746020    0.1100
     34 H34        -7.9680   -2.0329   59.5101 H       1  ZINC001231746020    0.1400
     35 H35        -8.0573   -0.5727   58.4903 H       1  ZINC001231746020    0.1300
     36 H36        -9.1588   -0.5256   61.3088 H       1  ZINC001231746020    0.0900
     37 H37        -7.4142   -0.3559   61.0518 H       1  ZINC001231746020    0.1100
     38 H38        -7.6069    2.5739   59.1748 H       1  ZINC001231746020    0.3900
@<TRIPOS>BOND
     1     1     2    1
     2     1    23    1
     3     1    24    1
     4     1    25    1
     5     2     3    1
     6     2    20    1
     7     2     4    1
     8     4     5    1
     9     4    26    1
    10     4    27    1
    11     5     6    1
    12     5    28    1
    13     5    29    1
    14     6     7    1
    15     6     8    1
    16     6    18    1
    17     8     9    1
    18     8    30    1
    19     8    31    1
    20     9    17   ar
    21     9    10   ar
    22    10    11   ar
    23    10    32    1
    24    11    12    1
    25    11    13   ar
    26    13    14    1
    27    13    15   ar
    28    15    16    1
    29    15    17   ar
    30    17    33    1
    31    18    19    1
    32    18    34    1
    33    18    35    1
    34    19    20    1
    35    19    36    1
    36    19    37    1
    37    20    21    1
    38    20    22    1
    39    22    38    1
@<TRIPOS>SUBSTRUCTURE
     1 ZINC001231746020        1 TEMP              0 ****  ****    0 ROOT


##########                                Name:    ZINC000965273005
##########                DOCK_Rotatable_Bonds:                   7
##########                         Heavy_Atoms:                  27
##########                    Molecular_Weight:             368.436
##########                DOCK_Rotatable_Bonds:                   7
##########                       Formal_Charge:           0.0100003
##########                     HBond_Acceptors:                   7
##########                        HBond_Donors:                   2
##########                         Heavy_Atoms:                  27
##########                          Grid_Score:          -24.715412
##########                     Grid_vdw_energy:          -25.072432
##########                      Grid_es_energy:            0.357020
##########           Internal_energy_repulsive:            9.212629

@<TRIPOS>MOLECULE
ZINC000965273005
 51 54 1 0 0
SMALL
USER_CHARGES


@<TRIPOS>ATOM
      1 C1        -10.2087   -1.2639   54.7121 C.3     1  ZINC000965273005   -0.1200
      2 C2        -10.0739    0.0744   54.0325 C.ar    1  ZINC000965273005   -0.0300
      3 C3        -10.8343    0.3637   52.9186 C.ar    1  ZINC000965273005   -0.1200
      4 C4        -10.7117    1.5921   52.2933 C.ar    1  ZINC000965273005   -0.0900
      5 C5         -9.8273    2.5377   52.7804 C.ar    1  ZINC000965273005   -0.1300
      6 C6         -9.0607    2.2611   53.8938 C.ar    1  ZINC000965273005   -0.0900
      7 C7         -9.1834    1.0262   54.5322 C.ar    1  ZINC000965273005   -0.1300
      8 C8         -8.3652    0.7230   55.7257 C.2     1  ZINC000965273005    0.5800
      9 O9         -7.2642    0.2241   55.5971 O.2     1  ZINC000965273005   -0.5200
     10 N10        -8.8401    0.9996   56.9563 N.am    1  ZINC000965273005   -0.6100
     11 C11       -10.1548    1.5958   57.2559 C.3     1  ZINC000965273005    0.0900
     12 C12       -10.4742    1.1447   58.7030 C.3     1  ZINC000965273005    0.1500
     13 H13       -11.1620    1.8391   59.1858 H       1  ZINC000965273005    0.1200
     14 N14       -11.0096   -0.2188   58.7220 N.am    1  ZINC000965273005   -0.7100
     15 C15       -12.2722   -0.4528   58.3126 C.2     1  ZINC000965273005    0.6000
     16 O16       -12.9675    0.4682   57.9288 O.2     1  ZINC000965273005   -0.5400
     17 C17       -12.8104   -1.8252   58.3301 C.2     1  ZINC000965273005   -0.2800
     18 C18       -12.6741   -2.7715   57.3345 C.2     1  ZINC000965273005    0.1000
     19 N19       -13.3090   -3.8811   57.7451 N.pl3   1  ZINC000965273005   -0.3600
     20 C20       -13.4140   -5.1347   56.9943 C.3     1  ZINC000965273005    0.1000
     21 N21       -13.8529   -3.6383   59.0113 N.2     1  ZINC000965273005   -0.3000
     22 C22       -13.5571   -2.4200   59.3717 C.2     1  ZINC000965273005    0.1700
     23 C23       -13.9516   -1.7593   60.6674 C.3     1  ZINC000965273005   -0.0800
     24 C24       -15.4460   -1.5840   60.9447 C.3     1  ZINC000965273005   -0.1700
     25 C25       -14.6411   -2.6275   61.7218 C.3     1  ZINC000965273005   -0.1600
     26 C26        -9.0715    1.2016   59.3638 C.3     1  ZINC000965273005    0.0900
     27 H27        -8.8360    2.2172   59.6822 H       1  ZINC000965273005    0.0900
     28 O28        -8.9955    0.2972   60.4676 O.3     1  ZINC000965273005   -0.5500
     29 C29        -8.1357    0.7510   58.2226 C.3     1  ZINC000965273005    0.0600
     30 H30       -10.9138   -1.1820   55.5392 H       1  ZINC000965273005    0.0800
     31 H31       -10.5729   -2.0002   53.9957 H       1  ZINC000965273005    0.0700
     32 H32        -9.2368   -1.5775   55.0930 H       1  ZINC000965273005    0.0700
     33 H33       -11.5266   -0.3703   52.5334 H       1  ZINC000965273005    0.1300
     34 H34       -11.3089    1.8133   51.4212 H       1  ZINC000965273005    0.1300
     35 H35        -9.7363    3.4946   52.2878 H       1  ZINC000965273005    0.1300
     36 H36        -8.3704    3.0002   54.2728 H       1  ZINC000965273005    0.1300
     37 H37       -10.0998    2.6830   57.2007 H       1  ZINC000965273005    0.0900
     38 H38       -10.9089    1.2177   56.5656 H       1  ZINC000965273005    0.0900
     39 H39       -10.4554   -0.9532   59.0293 H       1  ZINC000965273005    0.4000
     40 H40       -12.1532   -2.6430   56.3973 H       1  ZINC000965273005    0.1800
     41 H41       -12.5724   -5.7802   57.2454 H       1  ZINC000965273005    0.0800
     42 H42       -14.3465   -5.6362   57.2532 H       1  ZINC000965273005    0.1000
     43 H43       -13.4013   -4.9203   55.9257 H       1  ZINC000965273005    0.0900
     44 H44       -13.2788   -0.9778   61.0206 H       1  ZINC000965273005    0.1400
     45 H45       -15.7568   -0.6869   61.4802 H       1  ZINC000965273005    0.1000
     46 H46       -16.1439   -1.9466   60.1899 H       1  ZINC000965273005    0.1000
     47 H47       -14.8094   -3.6765   61.4783 H       1  ZINC000965273005    0.0900
     48 H48       -14.4223   -2.4169   62.7686 H       1  ZINC000965273005    0.1000
     49 H49        -8.1527   -0.1721   60.5342 H       1  ZINC000965273005    0.3900
     50 H50        -7.9107   -0.3106   58.3250 H       1  ZINC000965273005    0.0800
     51 H51        -7.2135    1.3317   58.2482 H       1  ZINC000965273005    0.0800
@<TRIPOS>BOND
     1     1     2    1
     2     1    30    1
     3     1    31    1
     4     1    32    1
     5     2     7   ar
     6     2     3   ar
     7     3     4   ar
     8     3    33    1
     9     4     5   ar
    10     4    34    1
    11     5     6   ar
    12     5    35    1
    13     6     7   ar
    14     6    36    1
    15     7     8    1
    16     8     9    2
    17     8    10   am
    18    10    29    1
    19    10    11    1
    20    11    12    1
    21    11    37    1
    22    11    38    1
    23    12    13    1
    24    12    14    1
    25    12    26    1
    26    14    15   am
    27    14    39    1
    28    15    16    2
    29    15    17    1
    30    17    22    1
    31    17    18    2
    32    18    19    1
    33    18    40    1
    34    19    20    1
    35    19    21    1
    36    20    41    1
    37    20    42    1
    38    20    43    1
    39    21    22    2
    40    22    23    1
    41    23    25    1
    42    23    24    1
    43    23    44    1
    44    24    25    1
    45    24    45    1
    46    24    46    1
    47    25    47    1
    48    25    48    1
    49    26    27    1
    50    26    28    1
    51    26    29    1
    52    28    49    1
    53    29    50    1
    54    29    51    1
@<TRIPOS>SUBSTRUCTURE
     1 ZINC000965273005        1 TEMP              0 ****  ****    0 ROOT


##########                                Name:    ZINC000422507946
##########                DOCK_Rotatable_Bonds:                   7
##########                         Heavy_Atoms:                  25
##########                    Molecular_Weight:             364.484
##########                DOCK_Rotatable_Bonds:                   7
##########                       Formal_Charge:          0.00999952
##########                     HBond_Acceptors:                   6
##########                        HBond_Donors:                   1
##########                         Heavy_Atoms:                  25
##########                          Grid_Score:          -24.593449
##########                     Grid_vdw_energy:          -23.717648
##########                      Grid_es_energy:           -0.875802
##########           Internal_energy_repulsive:           34.848717

@<TRIPOS>MOLECULE
ZINC000422507946
 50 52 1 0 0
SMALL
USER_CHARGES


@<TRIPOS>ATOM
      1 C1         -9.5916    1.3927   53.0318 C.3     1  ZINC000422507946   -0.1400
      2 C2         -9.0185    0.3765   54.0216 C.3     1  ZINC000422507946   -0.0400
      3 H3         -8.2967   -0.2715   53.5246 H       1  ZINC000422507946    0.1100
      4 C4        -10.1519   -0.4621   54.6481 C.3     1  ZINC000422507946   -0.1400
      5 C5         -9.7694   -0.8155   56.0958 C.3     1  ZINC000422507946    0.1400
      6 H6         -8.9746   -1.5613   56.0995 H       1  ZINC000422507946    0.1100
      7 N7        -10.9401   -1.3286   56.8118 N.am    1  ZINC000422507946   -0.6900
      8 C8        -11.3561   -2.5935   56.6040 C.2     1  ZINC000422507946    0.5100
      9 O9        -10.7600   -3.3080   55.8251 O.2     1  ZINC000422507946   -0.5000
     10 C10       -12.5513   -3.1163   57.3330 C.2     1  ZINC000422507946    0.5100
     11 O11       -12.4064   -3.7825   58.3369 O.2     1  ZINC000422507946   -0.5200
     12 N12       -13.7903   -2.8477   56.8755 N.am    1  ZINC000422507946   -0.5700
     13 C13       -14.9621   -3.3602   57.5902 C.3     1  ZINC000422507946    0.1400
     14 C14       -15.0411   -2.7177   58.9511 C.ar    1  ZINC000422507946   -0.0800
     15 C15       -14.6069   -3.4080   60.0671 C.ar    1  ZINC000422507946   -0.1100
     16 C16       -14.6788   -2.8199   61.3164 C.ar    1  ZINC000422507946   -0.0900
     17 C17       -15.1849   -1.5411   61.4505 C.ar    1  ZINC000422507946   -0.1500
     18 C18       -15.6198   -0.8485   60.3330 C.ar    1  ZINC000422507946    0.1000
     19 F19       -16.1148    0.4018   60.4630 F       1  ZINC000422507946   -0.1400
     20 C20       -15.5424   -1.4364   59.0821 C.ar    1  ZINC000422507946   -0.1500
     21 C21       -13.9654   -2.0434   55.6637 C.3     1  ZINC000422507946    0.1400
     22 C22       -15.2678   -2.4494   54.9435 C.3     1  ZINC000422507946   -0.1200
     23 C23       -16.3157   -1.4264   55.4480 C.3     1  ZINC000422507946   -0.1300
     24 C24       -15.4999   -0.1121   55.5262 C.3     1  ZINC000422507946   -0.1200
     25 C25       -14.1130   -0.5572   56.0341 C.3     1  ZINC000422507946   -0.1600
     26 C26        -9.2708    0.4934   56.7629 C.3     1  ZINC000422507946   -0.0900
     27 S27        -8.2368    1.2353   55.4372 S.3     1  ZINC000422507946   -0.2700
     28 H28        -8.7820    1.9955   52.6202 H       1  ZINC000422507946    0.0700
     29 H29       -10.0995    0.8663   52.2237 H       1  ZINC000422507946    0.0700
     30 H30       -10.3016    2.0404   53.5461 H       1  ZINC000422507946    0.0700
     31 H31       -11.0777    0.1134   54.6445 H       1  ZINC000422507946    0.0900
     32 H32       -10.2909   -1.3772   54.0727 H       1  ZINC000422507946    0.0900
     33 H33       -11.4157   -0.7577   57.4354 H       1  ZINC000422507946    0.4100
     34 H34       -15.8639   -3.1255   57.0247 H       1  ZINC000422507946    0.1100
     35 H35       -14.8749   -4.4408   57.7030 H       1  ZINC000422507946    0.1000
     36 H36       -14.2116   -4.4077   59.9633 H       1  ZINC000422507946    0.1400
     37 H37       -14.3396   -3.3603   62.1877 H       1  ZINC000422507946    0.1300
     38 H38       -15.2416   -1.0823   62.4265 H       1  ZINC000422507946    0.1400
     39 H39       -15.8810   -0.8970   58.2098 H       1  ZINC000422507946    0.1400
     40 H40       -13.1123   -2.1795   54.9990 H       1  ZINC000422507946    0.1100
     41 H41       -15.1469   -2.3705   53.8631 H       1  ZINC000422507946    0.0800
     42 H42       -15.5583   -3.4622   55.2227 H       1  ZINC000422507946    0.0600
     43 H43       -17.1356   -1.3304   54.7361 H       1  ZINC000422507946    0.0700
     44 H44       -16.6884   -1.7089   56.4325 H       1  ZINC000422507946    0.0600
     45 H45       -15.4165    0.3444   54.5400 H       1  ZINC000422507946    0.0700
     46 H46       -15.9599    0.5810   56.2307 H       1  ZINC000422507946    0.0700
     47 H47       -14.0544   -0.4344   57.1156 H       1  ZINC000422507946    0.0900
     48 H48       -13.3321    0.0279   55.5488 H       1  ZINC000422507946    0.0800
     49 H49       -10.1082    1.1446   57.0135 H       1  ZINC000422507946    0.1000
     50 H50        -8.6701    0.2746   57.6458 H       1  ZINC000422507946    0.1100
@<TRIPOS>BOND
     1     1     2    1
     2     1    28    1
     3     1    29    1
     4     1    30    1
     5     2     3    1
     6     2    27    1
     7     2     4    1
     8     4     5    1
     9     4    31    1
    10     4    32    1
    11     5     6    1
    12     5     7    1
    13     5    26    1
    14     7     8   am
    15     7    33    1
    16     8     9    2
    17     8    10    1
    18    10    11    2
    19    10    12   am
    20    12    13    1
    21    12    21    1
    22    13    14    1
    23    13    34    1
    24    13    35    1
    25    14    20   ar
    26    14    15   ar
    27    15    16   ar
    28    15    36    1
    29    16    17   ar
    30    16    37    1
    31    17    18   ar
    32    17    38    1
    33    18    19    1
    34    18    20   ar
    35    20    39    1
    36    21    25    1
    37    21    22    1
    38    21    40    1
    39    22    23    1
    40    22    41    1
    41    22    42    1
    42    23    24    1
    43    23    43    1
    44    23    44    1
    45    24    25    1
    46    24    45    1
    47    24    46    1
    48    25    47    1
    49    25    48    1
    50    26    27    1
    51    26    49    1
    52    26    50    1
@<TRIPOS>SUBSTRUCTURE
     1 ZINC000422507946        1 TEMP              0 ****  ****    0 ROOT


##########                                Name:    ZINC001076281847
##########                DOCK_Rotatable_Bonds:                   4
##########                         Heavy_Atoms:                  24
##########                    Molecular_Weight:             362.883
##########                DOCK_Rotatable_Bonds:                   4
##########                       Formal_Charge:         -0.00999959
##########                     HBond_Acceptors:                   7
##########                        HBond_Donors:                   0
##########                         Heavy_Atoms:                  24
##########                          Grid_Score:          -24.509163
##########                     Grid_vdw_energy:          -23.768150
##########                      Grid_es_energy:           -0.741012
##########           Internal_energy_repulsive:           10.144738

@<TRIPOS>MOLECULE
ZINC001076281847
 43 46 1 0 0
SMALL
USER_CHARGES


@<TRIPOS>ATOM
      1 C1          2.3522    3.6129   51.1528 C.3     1  ZINC001076281847   -0.0900
      2 C2          1.0698    3.1713   50.4959 C.2     1  ZINC001076281847    0.1400
      3 N3          1.0003    2.9554   49.2151 N.2     1  ZINC001076281847   -0.4600
      4 S4         -0.5915    2.4797   48.8737 S.3     1  ZINC001076281847    0.2500
      5 C5         -1.1520    2.5810   50.4971 C.2     1  ZINC001076281847   -0.2100
      6 C6         -2.5418    2.2896   51.0021 C.3     1  ZINC001076281847    0.1200
      7 N7         -3.5252    2.6850   49.9851 N.3     1  ZINC001076281847   -0.5000
      8 C8         -4.2250    3.9176   50.3795 C.3     1  ZINC001076281847    0.0300
      9 C9         -5.6983    3.7453   49.9640 C.3     1  ZINC001076281847   -0.1000
     10 H10        -5.9324    4.1973   49.0001 H       1  ZINC001076281847    0.1200
     11 C11        -6.5928    4.2618   51.1215 C.3     1  ZINC001076281847   -0.1300
     12 C12        -6.4422    3.1290   52.1667 C.3     1  ZINC001076281847    0.1000
     13 N13        -6.3918    1.8881   51.3728 N.am    1  ZINC001076281847   -0.6000
     14 C14        -6.7277    0.6600   51.8147 C.2     1  ZINC001076281847    0.5700
     15 O15        -6.6470   -0.2968   51.0700 O.2     1  ZINC001076281847   -0.4900
     16 C16        -7.1950    0.4766   53.2078 C.ar    1  ZINC001076281847   -0.0800
     17 C17        -6.4257    0.9195   54.2881 C.ar    1  ZINC001076281847   -0.1800
     18 C18        -6.9000    0.7284   55.5714 C.ar    1  ZINC001076281847    0.1000
     19 N19        -8.0593    0.1385   55.7845 N.ar    1  ZINC001076281847   -0.4500
     20 C20        -8.8164   -0.2943   54.7965 C.ar    1  ZINC001076281847    0.1100
     21 C21        -8.4219   -0.1397   53.4798 C.ar    1  ZINC001076281847   -0.0500
     22 Cl22       -9.4268   -0.7127   52.1854 Cl      1  ZINC001076281847   -0.0100
     23 C23        -5.9096    2.2076   49.9993 C.3     1  ZINC001076281847    0.1000
     24 H24        -6.6206    1.8752   49.2428 H       1  ZINC001076281847    0.1100
     25 C25        -4.5124    1.6178   49.7634 C.3     1  ZINC001076281847    0.0200
     26 C26        -0.0826    2.9719   51.2248 C.2     1  ZINC001076281847   -0.1800
     27 H27         2.8855    2.7409   51.5314 H       1  ZINC001076281847    0.0700
     28 H28         2.9745    4.1311   50.4233 H       1  ZINC001076281847    0.0800
     29 H29         2.1241    4.2862   51.9792 H       1  ZINC001076281847    0.0900
     30 H30        -2.6381    1.2231   51.2055 H       1  ZINC001076281847    0.1000
     31 H31        -2.7206    2.8518   51.9185 H       1  ZINC001076281847    0.1000
     32 H32        -4.1558    4.0566   51.4584 H       1  ZINC001076281847    0.0600
     33 H33        -3.7902    4.7742   49.8643 H       1  ZINC001076281847    0.0900
     34 H34        -6.2166    5.2067   51.5134 H       1  ZINC001076281847    0.0900
     35 H35        -7.6295    4.3600   50.7993 H       1  ZINC001076281847    0.0800
     36 H36        -5.5192    3.2553   52.7325 H       1  ZINC001076281847    0.0800
     37 H37        -7.3010    3.1155   52.8378 H       1  ZINC001076281847    0.0800
     38 H38        -5.4746    1.4034   54.1218 H       1  ZINC001076281847    0.1800
     39 H39        -6.3123    1.0670   56.4119 H       1  ZINC001076281847    0.1700
     40 H40        -9.7593   -0.7721   55.0176 H       1  ZINC001076281847    0.1700
     41 H41        -4.4412    1.2342   48.7456 H       1  ZINC001076281847    0.1000
     42 H42        -4.3273    0.8126   50.4744 H       1  ZINC001076281847    0.0700
     43 H43        -0.1291    3.1228   52.2932 H       1  ZINC001076281847    0.1400
@<TRIPOS>BOND
     1     1     2    1
     2     1    27    1
     3     1    28    1
     4     1    29    1
     5     2    26    1
     6     2     3    2
     7     3     4    1
     8     4     5    1
     9     5     6    1
    10     5    26    2
    11     6     7    1
    12     6    30    1
    13     6    31    1
    14     7    25    1
    15     7     8    1
    16     8     9    1
    17     8    32    1
    18     8    33    1
    19     9    10    1
    20     9    23    1
    21     9    11    1
    22    11    12    1
    23    11    34    1
    24    11    35    1
    25    12    13    1
    26    12    36    1
    27    12    37    1
    28    13    14   am
    29    13    23    1
    30    14    15    2
    31    14    16    1
    32    16    21   ar
    33    16    17   ar
    34    17    18   ar
    35    17    38    1
    36    18    19   ar
    37    18    39    1
    38    19    20   ar
    39    20    21   ar
    40    20    40    1
    41    21    22    1
    42    23    24    1
    43    23    25    1
    44    25    41    1
    45    25    42    1
    46    26    43    1
@<TRIPOS>SUBSTRUCTURE
     1 ZINC001076281847        1 TEMP              0 ****  ****    0 ROOT


##########                                Name:    ZINC000004040798
##########                DOCK_Rotatable_Bonds:                   3
##########                         Heavy_Atoms:                  22
##########                    Molecular_Weight:             361.151
##########                DOCK_Rotatable_Bonds:                   3
##########                       Formal_Charge:           0.0200003
##########                     HBond_Acceptors:                   6
##########                        HBond_Donors:                   1
##########                         Heavy_Atoms:                  22
##########                          Grid_Score:          -24.424974
##########                     Grid_vdw_energy:          -24.009836
##########                      Grid_es_energy:           -0.415138
##########           Internal_energy_repulsive:            2.473325

@<TRIPOS>MOLECULE
ZINC000004040798
 31 33 1 0 0
SMALL
USER_CHARGES


@<TRIPOS>ATOM
      1 O1        -10.4672   -2.3841   55.3118 O.2     1  ZINC000004040798   -0.4800
      2 C2        -10.0988   -1.2875   55.6889 C.2     1  ZINC000004040798    0.6100
      3 N3        -10.6376   -0.7395   56.7961 N.am    1  ZINC000004040798   -0.6600
      4 C4        -11.6243   -1.4287   57.5083 C.ar    1  ZINC000004040798    0.2300
      5 C5        -12.8685   -1.6530   56.9341 C.ar    1  ZINC000004040798   -0.1300
      6 C6        -13.8410   -2.3340   57.6403 C.ar    1  ZINC000004040798   -0.0100
      7 C7        -13.5771   -2.7924   58.9177 C.ar    1  ZINC000004040798   -0.0600
      8 N8        -14.6219   -3.5217   59.6710 N.pl3   1  ZINC000004040798    0.0300
      9 O9        -15.7127   -3.7174   59.1655 O.2     1  ZINC000004040798   -0.1500
     10 O10       -14.3909   -3.9263   60.7964 O.2     1  ZINC000004040798   -0.1500
     11 C11       -12.3390   -2.5716   59.4931 C.ar    1  ZINC000004040798    0.0000
     12 C12       -11.3598   -1.8958   58.7905 C.ar    1  ZINC000004040798   -0.1400
     13 Br13       -9.6672   -1.5942   59.5777 Br      1  ZINC000004040798    0.0000
     14 C14        -9.0622   -0.5634   54.9406 C.2     1  ZINC000004040798   -0.0500
     15 C15        -8.5337    0.6357   55.2982 C.2     1  ZINC000004040798   -0.0800
     16 C16        -7.5486    0.9673   54.2694 C.ar    1  ZINC000004040798   -0.1500
     17 C17        -6.6818    2.0425   54.0621 C.ar    1  ZINC000004040798   -0.0500
     18 C18        -5.8625    2.0509   52.9683 C.ar    1  ZINC000004040798   -0.1400
     19 C19        -5.8869    0.9988   52.0633 C.ar    1  ZINC000004040798   -0.0700
     20 C20        -6.7350   -0.0716   52.2499 C.ar    1  ZINC000004040798   -0.1100
     21 C21        -7.5772   -0.1026   53.3551 C.ar    1  ZINC000004040798    0.0800
     22 O22        -8.4873   -0.9921   53.7974 O.3     1  ZINC000004040798   -0.1900
     23 H23       -10.3409    0.1330   57.0990 H       1  ZINC000004040798    0.4300
     24 H24       -13.0758   -1.2949   55.9365 H       1  ZINC000004040798    0.1800
     25 H25       -14.8090   -2.5082   57.1941 H       1  ZINC000004040798    0.1700
     26 H26       -12.1359   -2.9310   60.4911 H       1  ZINC000004040798    0.1700
     27 H27        -8.7896    1.2252   56.1663 H       1  ZINC000004040798    0.1800
     28 H28        -6.6593    2.8640   54.7628 H       1  ZINC000004040798    0.1400
     29 H29        -5.1918    2.8818   52.8068 H       1  ZINC000004040798    0.1400
     30 H30        -5.2342    1.0193   51.2031 H       1  ZINC000004040798    0.1400
     31 H31        -6.7449   -0.8846   51.5391 H       1  ZINC000004040798    0.1400
@<TRIPOS>BOND
     1     1     2    2
     2     2     3   am
     3     2    14    1
     4     3     4    1
     5     3    23    1
     6     4    12   ar
     7     4     5   ar
     8     5     6   ar
     9     5    24    1
    10     6     7   ar
    11     6    25    1
    12     7     8    1
    13     7    11   ar
    14     8     9    2
    15     8    10    2
    16    11    12   ar
    17    11    26    1
    18    12    13    1
    19    14    22    1
    20    14    15    2
    21    15    16    1
    22    15    27    1
    23    16    21   ar
    24    16    17   ar
    25    17    18   ar
    26    17    28    1
    27    18    19   ar
    28    18    29    1
    29    19    20   ar
    30    19    30    1
    31    20    21   ar
    32    20    31    1
    33    21    22    1
@<TRIPOS>SUBSTRUCTURE
     1 ZINC000004040798        1 TEMP              0 ****  ****    0 ROOT


##########                                Name:    ZINC000426037318
##########                DOCK_Rotatable_Bonds:                   7
##########                         Heavy_Atoms:                  28
##########                    Molecular_Weight:             421.904
##########                DOCK_Rotatable_Bonds:                   7
##########                       Formal_Charge:         -0.00999981
##########                     HBond_Acceptors:                   9
##########                        HBond_Donors:                   1
##########                         Heavy_Atoms:                  28
##########                          Grid_Score:          -24.244331
##########                     Grid_vdw_energy:          -23.246494
##########                      Grid_es_energy:           -0.997837
##########           Internal_energy_repulsive:           20.907211

@<TRIPOS>MOLECULE
ZINC000426037318
 48 50 1 0 0
SMALL
USER_CHARGES


@<TRIPOS>ATOM
      1 C1         -8.0520    1.3588   64.7139 C.3     1  ZINC000426037318    0.0300
      2 O2         -8.9975    0.4082   64.2197 O.3     1  ZINC000426037318   -0.3800
      3 C3         -8.4706   -0.4727   63.2255 C.3     1  ZINC000426037318    0.1300
      4 C4         -9.3339   -0.4117   61.9918 C.ar    1  ZINC000426037318    0.3900
      5 N5         -9.2485    0.6452   61.2041 N.ar    1  ZINC000426037318   -0.5700
      6 C6         -9.9832    0.7482   60.1095 C.ar    1  ZINC000426037318    0.4400
      7 O7         -9.8818    1.8384   59.3141 O.3     1  ZINC000426037318   -0.2800
      8 C8         -8.5642    2.3067   59.0199 C.3     1  ZINC000426037318    0.0300
      9 C9        -10.8804   -0.3036   59.7809 C.ar    1  ZINC000426037318   -0.2000
     10 C10       -11.7544   -0.4342   58.6955 C.2     1  ZINC000426037318    0.0500
     11 C11       -11.8734    0.6221   57.6273 C.3     1  ZINC000426037318   -0.1200
     12 C12       -12.4771   -1.5607   58.6698 C.2     1  ZINC000426037318   -0.2700
     13 C13       -13.4521   -1.9036   57.6270 C.2     1  ZINC000426037318    0.6000
     14 O14       -14.5907   -2.2042   57.9338 O.2     1  ZINC000426037318   -0.5000
     15 N15       -13.0862   -1.8853   56.3301 N.am    1  ZINC000426037318   -0.6600
     16 C16       -14.0164   -2.2124   55.3351 C.ar    1  ZINC000426037318    0.1200
     17 C17       -14.5238   -1.2217   54.5060 C.ar    1  ZINC000426037318   -0.0700
     18 C18       -15.4407   -1.5450   53.5247 C.ar    1  ZINC000426037318   -0.0900
     19 C19       -15.9910   -0.4692   52.6243 C.3     1  ZINC000426037318   -0.1100
     20 C20       -15.8550   -2.8593   53.3676 C.ar    1  ZINC000426037318    0.1300
     21 O21       -16.7573   -3.1764   52.4011 O.3     1  ZINC000426037318   -0.3100
     22 C22       -17.1403   -4.5490   52.2962 C.3     1  ZINC000426037318    0.0200
     23 C23       -15.3488   -3.8509   54.1955 C.ar    1  ZINC000426037318   -0.1800
     24 C24       -14.4277   -3.5303   55.1740 C.ar    1  ZINC000426037318   -0.0300
     25 Cl25      -13.7937   -4.7709   56.2098 Cl      1  ZINC000426037318   -0.0600
     26 S26       -12.0986   -2.5718   60.0538 S.3     1  ZINC000426037318    0.2200
     27 C27       -10.9305   -1.4015   60.6521 C.ar    1  ZINC000426037318    0.1300
     28 N28       -10.1424   -1.4136   61.7325 N.ar    1  ZINC000426037318   -0.5000
     29 H29        -8.5292    1.9896   65.4640 H       1  ZINC000426037318    0.0900
     30 H30        -7.2097    0.8332   65.1638 H       1  ZINC000426037318    0.0500
     31 H31        -7.6958    1.9787   63.8911 H       1  ZINC000426037318    0.0500
     32 H32        -7.4544   -0.1697   62.9733 H       1  ZINC000426037318    0.0900
     33 H33        -8.4606   -1.4919   63.6118 H       1  ZINC000426037318    0.0800
     34 H34        -8.0042    1.5210   58.5127 H       1  ZINC000426037318    0.0700
     35 H35        -8.6256    3.1833   58.3750 H       1  ZINC000426037318    0.1100
     36 H36        -8.0575    2.5729   59.9476 H       1  ZINC000426037318    0.0700
     37 H37       -11.1612    0.4134   56.8289 H       1  ZINC000426037318    0.0900
     38 H38       -12.8853    0.6168   57.2221 H       1  ZINC000426037318    0.1000
     39 H39       -11.6597    1.6003   58.0582 H       1  ZINC000426037318    0.0800
     40 H40       -12.1786   -1.6455   56.0855 H       1  ZINC000426037318    0.4100
     41 H41       -14.2019   -0.1980   54.6281 H       1  ZINC000426037318    0.1600
     42 H42       -15.3562   -0.3726   51.7436 H       1  ZINC000426037318    0.0700
     43 H43       -17.0021   -0.7354   52.3161 H       1  ZINC000426037318    0.0700
     44 H44       -16.0129    0.4787   53.1621 H       1  ZINC000426037318    0.0700
     45 H45       -16.2602   -5.1568   52.0858 H       1  ZINC000426037318    0.0600
     46 H46       -17.5901   -4.8735   53.2345 H       1  ZINC000426037318    0.0600
     47 H47       -17.8628   -4.6639   51.4881 H       1  ZINC000426037318    0.1000
     48 H48       -15.6719   -4.8741   54.0725 H       1  ZINC000426037318    0.1500
@<TRIPOS>BOND
     1     1     2    1
     2     1    29    1
     3     1    30    1
     4     1    31    1
     5     2     3    1
     6     3     4    1
     7     3    32    1
     8     3    33    1
     9     4    28   ar
    10     4     5   ar
    11     5     6   ar
    12     6     7    1
    13     6     9   ar
    14     7     8    1
    15     8    34    1
    16     8    35    1
    17     8    36    1
    18     9    27   ar
    19     9    10    1
    20    10    11    1
    21    10    12    2
    22    11    37    1
    23    11    38    1
    24    11    39    1
    25    12    13    1
    26    12    26    1
    27    13    14    2
    28    13    15   am
    29    15    16    1
    30    15    40    1
    31    16    24   ar
    32    16    17   ar
    33    17    18   ar
    34    17    41    1
    35    18    19    1
    36    18    20   ar
    37    19    42    1
    38    19    43    1
    39    19    44    1
    40    20    21    1
    41    20    23   ar
    42    21    22    1
    43    22    45    1
    44    22    46    1
    45    22    47    1
    46    23    24   ar
    47    23    48    1
    48    24    25    1
    49    26    27    1
    50    27    28   ar
@<TRIPOS>SUBSTRUCTURE
     1 ZINC000426037318        1 TEMP              0 ****  ****    0 ROOT


##########                                Name:    ZINC000656860804
##########                DOCK_Rotatable_Bonds:                   2
##########                         Heavy_Atoms:                  19
##########                    Molecular_Weight:             388.068
##########                DOCK_Rotatable_Bonds:                   2
##########                       Formal_Charge:          8.9407e-08
##########                     HBond_Acceptors:                   8
##########                        HBond_Donors:                   1
##########                         Heavy_Atoms:                  19
##########                          Grid_Score:          -23.971180
##########                     Grid_vdw_energy:          -24.548494
##########                      Grid_es_energy:            0.577315
##########           Internal_energy_repulsive:           13.399683

@<TRIPOS>MOLECULE
ZINC000656860804
 28 29 1 0 0
SMALL
USER_CHARGES


@<TRIPOS>ATOM
      1 O1         -1.5444   -2.1809   47.1487 O.2     1  ZINC000656860804   -0.5400
      2 C2         -1.4881   -1.1788   46.4680 C.2     1  ZINC000656860804    0.5100
      3 C3         -1.5197    0.1587   47.1559 C.3     1  ZINC000656860804    0.1100
      4 N4         -1.1366    1.1998   46.1907 N.am    1  ZINC000656860804   -1.0000
      5 S5         -0.1070    2.4270   46.6104 S.o2    1  ZINC000656860804    2.6900
      6 O6          1.0571    1.8099   47.1425 O.2     1  ZINC000656860804   -0.9200
      7 O7         -0.0771    3.3210   45.5062 O.2     1  ZINC000656860804   -0.9300
      8 C8         -0.8572    3.3051   47.9410 C.ar    1  ZINC000656860804   -0.6500
      9 C9         -2.1553    3.0145   48.3155 C.ar    1  ZINC000656860804    0.0100
     10 C10        -2.7448    3.7037   49.3604 C.ar    1  ZINC000656860804   -0.0400
     11 Cl11       -4.3753    3.3382   49.8311 Cl      1  ZINC000656860804   -0.0200
     12 C12        -2.0339    4.6846   50.0306 C.ar    1  ZINC000656860804    0.0200
     13 Cl13       -2.7727    5.5494   51.3422 Cl      1  ZINC000656860804   -0.0100
     14 C14        -0.7345    4.9748   49.6552 C.ar    1  ZINC000656860804   -0.0900
     15 C15        -0.1444    4.2813   48.6144 C.ar    1  ZINC000656860804    0.0100
     16 Br16        1.6317    4.6780   48.1010 Br      1  ZINC000656860804    0.0100
     17 C17        -1.7053    1.1064   44.8355 C.3     1  ZINC000656860804    0.0900
     18 C18        -1.2349   -0.2081   44.2097 C.3     1  ZINC000656860804    0.0800
     19 N19        -1.3954   -1.3132   45.1442 N.am    1  ZINC000656860804   -0.7100
     20 H20        -2.5262    0.3556   47.5251 H       1  ZINC000656860804    0.1200
     21 H21        -0.8172    0.1573   47.9894 H       1  ZINC000656860804    0.1200
     22 H22        -2.7098    2.2496   47.7922 H       1  ZINC000656860804    0.1700
     23 H23        -0.1797    5.7401   50.1775 H       1  ZINC000656860804    0.1700
     24 H24        -2.7938    1.1181   44.8917 H       1  ZINC000656860804    0.1000
     25 H25        -1.3586    1.9456   44.2325 H       1  ZINC000656860804    0.1200
     26 H26        -1.8193   -0.4071   43.3114 H       1  ZINC000656860804    0.1000
     27 H27        -0.1824   -0.1206   43.9402 H       1  ZINC000656860804    0.0800
     28 H28        -1.4446   -2.2101   44.7779 H       1  ZINC000656860804    0.4000
@<TRIPOS>BOND
     1     1     2    2
     2     2    19   am
     3     2     3    1
     4     3     4    1
     5     3    20    1
     6     3    21    1
     7     4     5   am
     8     4    17    1
     9     5     6    2
    10     5     7    2
    11     5     8    1
    12     8    15   ar
    13     8     9   ar
    14     9    10   ar
    15     9    22    1
    16    10    11    1
    17    10    12   ar
    18    12    13    1
    19    12    14   ar
    20    14    15   ar
    21    14    23    1
    22    15    16    1
    23    17    18    1
    24    17    24    1
    25    17    25    1
    26    18    19    1
    27    18    26    1
    28    18    27    1
    29    19    28    1
@<TRIPOS>SUBSTRUCTURE
     1 ZINC000656860804        1 TEMP              0 ****  ****    0 ROOT


##########                                Name:    ZINC000950547210
##########                DOCK_Rotatable_Bonds:                   5
##########                         Heavy_Atoms:                  25
##########                    Molecular_Weight:              346.47
##########                DOCK_Rotatable_Bonds:                   5
##########                       Formal_Charge:         5.58794e-07
##########                     HBond_Acceptors:                   5
##########                        HBond_Donors:                   1
##########                         Heavy_Atoms:                  25
##########                          Grid_Score:          -23.671232
##########                     Grid_vdw_energy:          -23.765604
##########                      Grid_es_energy:            0.094372
##########           Internal_energy_repulsive:           19.199896

@<TRIPOS>MOLECULE
ZINC000950547210
 55 58 1 0 0
SMALL
USER_CHARGES


@<TRIPOS>ATOM
      1 O1        -11.5515   -1.8966   56.4671 O.2     1  ZINC000950547210   -0.5200
      2 C2        -12.5500   -1.2081   56.4577 C.2     1  ZINC000950547210    0.5200
      3 N3        -12.7437   -0.3154   55.4668 N.am    1  ZINC000950547210   -0.7300
      4 C4        -11.7454   -0.1723   54.4042 C.3     1  ZINC000950547210    0.1300
      5 H5        -11.4150   -1.1593   54.0803 H       1  ZINC000950547210    0.0900
      6 C6        -12.3638    0.5735   53.2194 C.3     1  ZINC000950547210   -0.1300
      7 C7        -11.3318    0.6946   52.0959 C.3     1  ZINC000950547210   -0.1300
      8 C8        -10.1281    1.4980   52.5980 C.3     1  ZINC000950547210    0.1000
      9 N9         -9.6160    0.8674   53.8222 N.am    1  ZINC000950547210   -0.6100
     10 C10        -8.3174    0.5216   53.9250 C.2     1  ZINC000950547210    0.5600
     11 O11        -7.9058    0.0001   54.9437 O.2     1  ZINC000950547210   -0.5200
     12 C12        -7.3979    0.7749   52.8051 C.2     1  ZINC000950547210   -0.1400
     13 C13        -7.0681    2.0217   52.5201 C.2     1  ZINC000950547210   -0.1500
     14 C14        -6.1433    2.3758   51.3898 C.3     1  ZINC000950547210    0.0900
     15 O15        -5.4325    1.2150   50.9551 O.3     1  ZINC000950547210   -0.3700
     16 C16        -6.2890    0.0967   50.6932 C.3     1  ZINC000950547210    0.0600
     17 C17        -6.8606   -0.3952   52.0275 C.3     1  ZINC000950547210   -0.1100
     18 C18       -10.5460    0.6205   54.9326 C.3     1  ZINC000950547210    0.1000
     19 C19       -13.5769   -1.3552   57.5508 C.3     1  ZINC000950547210   -0.1000
     20 H20       -13.9725   -0.3737   57.8122 H       1  ZINC000950547210    0.1000
     21 C21       -12.9241   -1.9864   58.7822 C.3     1  ZINC000950547210   -0.1100
     22 C22       -13.6290   -3.3030   59.1147 C.3     1  ZINC000950547210   -0.0900
     23 C23       -15.1067   -3.0316   59.4035 C.3     1  ZINC000950547210   -0.1100
     24 C24       -15.7595   -2.4005   58.1722 C.3     1  ZINC000950547210   -0.1100
     25 C25       -14.7169   -2.2511   57.0623 C.3     1  ZINC000950547210   -0.0600
     26 C26       -14.1617   -3.6287   56.6954 C.3     1  ZINC000950547210   -0.1300
     27 C27       -13.5088   -4.2599   57.9269 C.3     1  ZINC000950547210   -0.1200
     28 H28       -13.5442    0.2325   55.4572 H       1  ZINC000950547210    0.4000
     29 H29       -13.2322    0.0232   52.8572 H       1  ZINC000950547210    0.0800
     30 H30       -12.6721    1.5692   53.5382 H       1  ZINC000950547210    0.0700
     31 H31       -11.0047   -0.3003   51.7936 H       1  ZINC000950547210    0.0700
     32 H32       -11.7801    1.2052   51.2435 H       1  ZINC000950547210    0.0900
     33 H33        -9.3486    1.5031   51.8361 H       1  ZINC000950547210    0.0900
     34 H34       -10.4363    2.5208   52.8152 H       1  ZINC000950547210    0.0700
     35 H35        -7.4795    2.8180   53.1227 H       1  ZINC000950547210    0.1200
     36 H36        -6.7245    2.7761   50.5591 H       1  ZINC000950547210    0.0700
     37 H37        -5.4322    3.1298   51.7273 H       1  ZINC000950547210    0.1100
     38 H38        -7.1007    0.4035   50.0336 H       1  ZINC000950547210    0.0600
     39 H39        -5.7147   -0.7027   50.2250 H       1  ZINC000950547210    0.1000
     40 H40        -6.0747   -0.8887   52.5993 H       1  ZINC000950547210    0.0900
     41 H41        -7.6690   -1.1013   51.8378 H       1  ZINC000950547210    0.0900
     42 H42       -10.8887    1.5715   55.3405 H       1  ZINC000950547210    0.0700
     43 H43       -10.0421    0.0473   55.7108 H       1  ZINC000950547210    0.1000
     44 H44       -11.8713   -2.1798   58.5764 H       1  ZINC000950547210    0.0700
     45 H45       -13.0096   -1.3047   59.6284 H       1  ZINC000950547210    0.0700
     46 H46       -13.1638   -3.7527   59.9919 H       1  ZINC000950547210    0.0700
     47 H47       -15.6089   -3.9696   59.6404 H       1  ZINC000950547210    0.0600
     48 H48       -15.1922   -2.3499   60.2498 H       1  ZINC000950547210    0.0600
     49 H49       -16.5717   -3.0387   57.8242 H       1  ZINC000950547210    0.0700
     50 H50       -16.1551   -1.4190   58.4335 H       1  ZINC000950547210    0.0600
     51 H51       -15.1820   -1.8015   56.1852 H       1  ZINC000950547210    0.0800
     52 H52       -14.9739   -4.2670   56.3475 H       1  ZINC000950547210    0.0600
     53 H53       -13.4189   -3.5224   55.9048 H       1  ZINC000950547210    0.0900
     54 H54       -12.4561   -4.4533   57.7211 H       1  ZINC000950547210    0.0600
     55 H55       -14.0110   -5.1979   58.1638 H       1  ZINC000950547210    0.0600
@<TRIPOS>BOND
     1     1     2    2
     2     2     3   am
     3     2    19    1
     4     3     4    1
     5     3    28    1
     6     4     5    1
     7     4    18    1
     8     4     6    1
     9     6     7    1
    10     6    29    1
    11     6    30    1
    12     7     8    1
    13     7    31    1
    14     7    32    1
    15     8     9    1
    16     8    33    1
    17     8    34    1
    18     9    10   am
    19     9    18    1
    20    10    11    2
    21    10    12    1
    22    12    17    1
    23    12    13    2
    24    13    14    1
    25    13    35    1
    26    14    15    1
    27    14    36    1
    28    14    37    1
    29    15    16    1
    30    16    17    1
    31    16    38    1
    32    16    39    1
    33    17    40    1
    34    17    41    1
    35    18    42    1
    36    18    43    1
    37    19    20    1
    38    19    25    1
    39    19    21    1
    40    21    22    1
    41    21    44    1
    42    21    45    1
    43    22    27    1
    44    22    23    1
    45    22    46    1
    46    23    24    1
    47    23    47    1
    48    23    48    1
    49    24    25    1
    50    24    49    1
    51    24    50    1
    52    25    26    1
    53    25    51    1
    54    26    27    1
    55    26    52    1
    56    26    53    1
    57    27    54    1
    58    27    55    1
@<TRIPOS>SUBSTRUCTURE
     1 ZINC000950547210        1 TEMP              0 ****  ****    0 ROOT


##########                                Name:    ZINC000879023512
##########                DOCK_Rotatable_Bonds:                   4
##########                         Heavy_Atoms:                  20
##########                    Molecular_Weight:             346.156
##########                DOCK_Rotatable_Bonds:                   4
##########                       Formal_Charge:        -5.96046e-08
##########                     HBond_Acceptors:                   7
##########                        HBond_Donors:                   1
##########                         Heavy_Atoms:                  20
##########                          Grid_Score:          -23.640463
##########                     Grid_vdw_energy:          -24.131910
##########                      Grid_es_energy:            0.491448
##########           Internal_energy_repulsive:            2.979211

@<TRIPOS>MOLECULE
ZINC000879023512
 33 34 1 0 0
SMALL
USER_CHARGES


@<TRIPOS>ATOM
      1 O1        -10.3579   -1.6055   54.0750 O.2     1  ZINC000879023512   -0.5600
      2 C2         -9.9772   -1.2521   55.1743 C.2     1  ZINC000879023512    0.7200
      3 N3         -9.1586   -0.1880   55.2940 N.am    1  ZINC000879023512   -0.6800
      4 C4         -8.7423    0.5066   54.1523 C.ar    1  ZINC000879023512    0.1800
      5 C5         -9.1574    1.8151   53.9445 C.ar    1  ZINC000879023512   -0.0900
      6 C6         -8.7451    2.4984   52.8169 C.ar    1  ZINC000879023512   -0.0700
      7 C7         -7.9198    1.8799   51.8950 C.ar    1  ZINC000879023512   -0.0700
      8 Br8        -7.3575    2.8183   50.3527 Br      1  ZINC000879023512    0.0200
      9 C9         -7.5046    0.5758   52.0997 C.ar    1  ZINC000879023512    0.0000
     10 N10        -6.6215   -0.0828   51.1111 N.pl3   1  ZINC000879023512    0.0200
     11 O11        -6.2557   -1.2306   51.2907 O.2     1  ZINC000879023512   -0.1500
     12 O12        -6.2606    0.5230   50.1180 O.2     1  ZINC000879023512   -0.1300
     13 C13        -7.9087   -0.1098   53.2282 C.ar    1  ZINC000879023512   -0.0500
     14 N14       -10.3781   -1.9209   56.2736 N.am    1  ZINC000879023512   -0.6300
     15 C15       -11.2605   -3.0969   56.2867 C.3     1  ZINC000879023512    0.0900
     16 C16       -11.4616   -3.5024   57.7620 C.3     1  ZINC000879023512   -0.1200
     17 C17       -11.1396   -2.1928   58.5293 C.3     1  ZINC000879023512   -0.1400
     18 H18       -12.0046   -1.5299   58.5510 H       1  ZINC000879023512    0.1000
     19 C19       -10.6476   -2.4942   59.9463 C.3     1  ZINC000879023512    0.0700
     20 F20       -10.2066   -1.3109   60.5485 F       1  ZINC000879023512   -0.2100
     21 C21        -9.9994   -1.5987   57.6613 C.3     1  ZINC000879023512    0.1300
     22 H22        -8.8582    0.0964   56.1713 H       1  ZINC000879023512    0.4200
     23 H23        -9.8024    2.2982   54.6636 H       1  ZINC000879023512    0.1600
     24 H24        -9.0678    3.5163   52.6549 H       1  ZINC000879023512    0.1600
     25 H25        -7.5840   -1.1274   53.3876 H       1  ZINC000879023512    0.1800
     26 H26       -12.2211   -2.8447   55.8374 H       1  ZINC000879023512    0.0700
     27 H27       -10.7955   -3.9155   55.7373 H       1  ZINC000879023512    0.0700
     28 H28       -12.4919   -3.8104   57.9404 H       1  ZINC000879023512    0.0900
     29 H29       -10.7672   -4.2943   58.0425 H       1  ZINC000879023512    0.0900
     30 H30       -11.4638   -2.9174   60.5319 H       1  ZINC000879023512    0.0800
     31 H31        -9.8248   -3.2076   59.9013 H       1  ZINC000879023512    0.0800
     32 H32        -9.0467   -2.0621   57.9175 H       1  ZINC000879023512    0.0800
     33 H33        -9.9446   -0.5182   57.7948 H       1  ZINC000879023512    0.0900
@<TRIPOS>BOND
     1     1     2    2
     2     2     3   am
     3     2    14   am
     4     3     4    1
     5     3    22    1
     6     4    13   ar
     7     4     5   ar
     8     5     6   ar
     9     5    23    1
    10     6     7   ar
    11     6    24    1
    12     7     8    1
    13     7     9   ar
    14     9    10    1
    15     9    13   ar
    16    10    11    2
    17    10    12    2
    18    13    25    1
    19    14    21    1
    20    14    15    1
    21    15    16    1
    22    15    26    1
    23    15    27    1
    24    16    17    1
    25    16    28    1
    26    16    29    1
    27    17    18    1
    28    17    19    1
    29    17    21    1
    30    19    20    1
    31    19    30    1
    32    19    31    1
    33    21    32    1
    34    21    33    1
@<TRIPOS>SUBSTRUCTURE
     1 ZINC000879023512        1 TEMP              0 ****  ****    0 ROOT


##########                                Name:    ZINC000055987960
##########                DOCK_Rotatable_Bonds:                   6
##########                         Heavy_Atoms:                  28
##########                    Molecular_Weight:             404.868
##########                DOCK_Rotatable_Bonds:                   6
##########                       Formal_Charge:          0.00999941
##########                     HBond_Acceptors:                   7
##########                        HBond_Donors:                   1
##########                         Heavy_Atoms:                  28
##########                          Grid_Score:          -23.554258
##########                     Grid_vdw_energy:          -23.392302
##########                      Grid_es_energy:           -0.161957
##########           Internal_energy_repulsive:           15.315235

@<TRIPOS>MOLECULE
ZINC000055987960
 50 52 1 0 0
SMALL
USER_CHARGES


@<TRIPOS>ATOM
      1 C1         -8.1547    3.0758   50.4573 C.3     1  ZINC000055987960   -0.1800
      2 C2         -7.4143    3.9767   51.4477 C.3     1  ZINC000055987960    0.0700
      3 H3         -7.0158    4.8447   50.9224 H       1  ZINC000055987960    0.1200
      4 C4         -8.3834    4.4405   52.5412 C.3     1  ZINC000055987960    0.0800
      5 N5         -8.7616    3.2723   53.3521 N.am    1  ZINC000055987960   -0.6100
      6 C6        -10.0555    2.9940   53.6068 C.2     1  ZINC000055987960    0.5700
      7 O7        -10.9304    3.7131   53.1644 O.2     1  ZINC000055987960   -0.5300
      8 C8        -10.4104    1.8165   54.4228 C.ar    1  ZINC000055987960   -0.1500
      9 C9        -11.1123    0.7529   53.8492 C.ar    1  ZINC000055987960   -0.0700
     10 C10       -11.4414   -0.3442   54.6131 C.ar    1  ZINC000055987960   -0.1500
     11 C11       -11.0760   -0.3947   55.9547 C.ar    1  ZINC000055987960    0.1700
     12 N12       -11.4106   -1.5075   56.7253 N.am    1  ZINC000055987960   -0.6700
     13 C13       -10.8250   -2.6967   56.4816 C.2     1  ZINC000055987960    0.5200
     14 O14       -10.0072   -2.7989   55.5919 O.2     1  ZINC000055987960   -0.5000
     15 C15       -11.1866   -3.8995   57.3144 C.3     1  ZINC000055987960   -0.1100
     16 C16       -12.0727   -3.4722   58.4560 C.ar    1  ZINC000055987960   -0.1000
     17 C17       -13.4286   -3.7478   58.4208 C.ar    1  ZINC000055987960    0.1300
     18 F18       -13.9585   -4.4001   57.3630 F       1  ZINC000055987960   -0.1300
     19 C19       -14.2417   -3.3549   59.4708 C.ar    1  ZINC000055987960   -0.1500
     20 C20       -13.6993   -2.6882   60.5527 C.ar    1  ZINC000055987960   -0.0700
     21 C21       -12.3449   -2.4129   60.5880 C.ar    1  ZINC000055987960   -0.1200
     22 C22       -11.5303   -2.8092   59.5424 C.ar    1  ZINC000055987960    0.0000
     23 Cl23       -9.8297   -2.4635   59.5878 Cl      1  ZINC000055987960   -0.0500
     24 C24       -10.3772    0.6626   56.5288 C.ar    1  ZINC000055987960   -0.1200
     25 C25       -10.0403    1.7602   55.7693 C.ar    1  ZINC000055987960   -0.0500
     26 C26        -7.6854    2.4165   53.8763 C.3     1  ZINC000055987960    0.0600
     27 C27        -6.7503    2.0513   52.7177 C.3     1  ZINC000055987960    0.0700
     28 H28        -7.2754    1.4026   52.0168 H       1  ZINC000055987960    0.0700
     29 C29        -5.5198    1.3243   53.2638 C.3     1  ZINC000055987960   -0.1500
     30 O30        -6.3411    3.2469   52.0470 O.3     1  ZINC000055987960   -0.3700
     31 H31        -8.5530    2.2080   50.9831 H       1  ZINC000055987960    0.0600
     32 H32        -8.9739    3.6323   50.0020 H       1  ZINC000055987960    0.0700
     33 H33        -7.4647    2.7449   49.6811 H       1  ZINC000055987960    0.0700
     34 H34        -7.8961    5.1835   53.1726 H       1  ZINC000055987960    0.0800
     35 H35        -9.2730    4.8735   52.0838 H       1  ZINC000055987960    0.1000
     36 H36       -11.3965    0.7915   52.8080 H       1  ZINC000055987960    0.1400
     37 H37       -11.9842   -1.1664   54.1706 H       1  ZINC000055987960    0.1300
     38 H38       -12.0647   -1.4258   57.4368 H       1  ZINC000055987960    0.4200
     39 H39       -11.7155   -4.6243   56.6954 H       1  ZINC000055987960    0.1200
     40 H40       -10.2782   -4.3539   57.7099 H       1  ZINC000055987960    0.1200
     41 H41       -15.2999   -3.5694   59.4438 H       1  ZINC000055987960    0.1500
     42 H42       -14.3337   -2.3817   61.3712 H       1  ZINC000055987960    0.1500
     43 H43       -11.9220   -1.8914   61.4338 H       1  ZINC000055987960    0.1400
     44 H44       -10.0954    0.6204   57.5705 H       1  ZINC000055987960    0.1500
     45 H45        -9.4978    2.5806   56.2154 H       1  ZINC000055987960    0.1300
     46 H46        -7.1278    2.9558   54.6421 H       1  ZINC000055987960    0.0800
     47 H47        -8.1127    1.5093   54.3031 H       1  ZINC000055987960    0.1100
     48 H48        -5.8331    0.4155   53.7776 H       1  ZINC000055987960    0.0700
     49 H49        -4.8555    1.0650   52.4394 H       1  ZINC000055987960    0.0700
     50 H50        -4.9943    1.9745   53.9633 H       1  ZINC000055987960    0.0700
@<TRIPOS>BOND
     1     1     2    1
     2     1    31    1
     3     1    32    1
     4     1    33    1
     5     2     3    1
     6     2    30    1
     7     2     4    1
     8     4     5    1
     9     4    34    1
    10     4    35    1
    11     5     6   am
    12     5    26    1
    13     6     7    2
    14     6     8    1
    15     8    25   ar
    16     8     9   ar
    17     9    10   ar
    18     9    36    1
    19    10    11   ar
    20    10    37    1
    21    11    12    1
    22    11    24   ar
    23    12    13   am
    24    12    38    1
    25    13    14    2
    26    13    15    1
    27    15    16    1
    28    15    39    1
    29    15    40    1
    30    16    22   ar
    31    16    17   ar
    32    17    18    1
    33    17    19   ar
    34    19    20   ar
    35    19    41    1
    36    20    21   ar
    37    20    42    1
    38    21    22   ar
    39    21    43    1
    40    22    23    1
    41    24    25   ar
    42    24    44    1
    43    25    45    1
    44    26    27    1
    45    26    46    1
    46    26    47    1
    47    27    28    1
    48    27    29    1
    49    27    30    1
    50    29    48    1
    51    29    49    1
    52    29    50    1
@<TRIPOS>SUBSTRUCTURE
     1 ZINC000055987960        1 TEMP              0 ****  ****    0 ROOT


##########                                Name:    ZINC000569288350
##########                DOCK_Rotatable_Bonds:                   3
##########                         Heavy_Atoms:                  19
##########                    Molecular_Weight:             393.559
##########                DOCK_Rotatable_Bonds:                   3
##########                       Formal_Charge:           0.0299999
##########                     HBond_Acceptors:                   5
##########                        HBond_Donors:                   1
##########                         Heavy_Atoms:                  19
##########                          Grid_Score:          -23.528904
##########                     Grid_vdw_energy:          -22.946533
##########                      Grid_es_energy:           -0.582371
##########           Internal_energy_repulsive:            6.357601

@<TRIPOS>MOLECULE
ZINC000569288350
 26 27 1 0 0
SMALL
USER_CHARGES


@<TRIPOS>ATOM
      1 O1        -11.8379   -0.4574   60.0733 O.2     1  ZINC000569288350   -0.4800
      2 C2        -11.3017   -1.1524   60.9146 C.2     1  ZINC000569288350    0.5700
      3 N3        -11.3753   -2.4953   60.8260 N.am    1  ZINC000569288350   -0.6600
      4 C4        -12.0733   -3.0894   59.7690 C.ar    1  ZINC000569288350    0.1800
      5 C5        -11.4121   -3.4070   58.5902 C.ar    1  ZINC000569288350   -0.1200
      6 C6        -12.1029   -3.9937   57.5473 C.ar    1  ZINC000569288350   -0.0600
      7 C7        -13.4523   -4.2648   57.6750 C.ar    1  ZINC000569288350   -0.1500
      8 C8        -14.1168   -3.9499   58.8490 C.ar    1  ZINC000569288350    0.1300
      9 F9        -15.4355   -4.2166   58.9710 F       1  ZINC000569288350   -0.1200
     10 C10       -13.4285   -3.3678   59.8992 C.ar    1  ZINC000569288350   -0.1000
     11 Cl11      -14.2599   -2.9732   61.3711 Cl      1  ZINC000569288350   -0.0400
     12 C12       -10.5652   -0.5256   62.0299 C.ar    1  ZINC000569288350   -0.1400
     13 C13        -9.1755   -0.6567   62.1161 C.ar    1  ZINC000569288350    0.1400
     14 F14        -8.5014   -1.3576   61.1783 F       1  ZINC000569288350   -0.1200
     15 C15        -8.4935   -0.0662   63.1644 C.ar    1  ZINC000569288350   -0.1300
     16 C16        -9.1826    0.6511   64.1243 C.ar    1  ZINC000569288350   -0.0600
     17 C17       -10.5581    0.7841   64.0447 C.ar    1  ZINC000569288350   -0.0900
     18 C18       -11.2521    0.2068   63.0018 C.ar    1  ZINC000569288350   -0.0500
     19 I19       -13.3340    0.4109   62.8856 I       1  ZINC000569288350    0.0000
     20 H20       -10.9442   -3.0498   61.4950 H       1  ZINC000569288350    0.4200
     21 H21       -10.3579   -3.1953   58.4882 H       1  ZINC000569288350    0.1600
     22 H22       -11.5878   -4.2404   56.6307 H       1  ZINC000569288350    0.1500
     23 H23       -13.9897   -4.7227   56.8578 H       1  ZINC000569288350    0.1500
     24 H24        -7.4203   -0.1659   63.2333 H       1  ZINC000569288350    0.1500
     25 H25        -8.6450    1.1099   64.9409 H       1  ZINC000569288350    0.1500
     26 H26       -11.0891    1.3459   64.7989 H       1  ZINC000569288350    0.1500
@<TRIPOS>BOND
     1     1     2    2
     2     2     3   am
     3     2    12    1
     4     3     4    1
     5     3    20    1
     6     4    10   ar
     7     4     5   ar
     8     5     6   ar
     9     5    21    1
    10     6     7   ar
    11     6    22    1
    12     7     8   ar
    13     7    23    1
    14     8     9    1
    15     8    10   ar
    16    10    11    1
    17    12    18   ar
    18    12    13   ar
    19    13    14    1
    20    13    15   ar
    21    15    16   ar
    22    15    24    1
    23    16    17   ar
    24    16    25    1
    25    17    18   ar
    26    17    26    1
    27    18    19    1
@<TRIPOS>SUBSTRUCTURE
     1 ZINC000569288350        1 TEMP              0 ****  ****    0 ROOT


##########                                Name:    ZINC000828026236
##########                DOCK_Rotatable_Bonds:                   1
##########                         Heavy_Atoms:                  19
##########                    Molecular_Weight:             383.045
##########                DOCK_Rotatable_Bonds:                   1
##########                       Formal_Charge:                   0
##########                     HBond_Acceptors:                   5
##########                        HBond_Donors:                   0
##########                         Heavy_Atoms:                  19
##########                          Grid_Score:          -23.401239
##########                     Grid_vdw_energy:          -22.440523
##########                      Grid_es_energy:           -0.960716
##########           Internal_energy_repulsive:            3.807594

@<TRIPOS>MOLECULE
ZINC000828026236
 28 30 1 0 0
SMALL
USER_CHARGES


@<TRIPOS>ATOM
      1 N1         -5.1478    2.7400   49.8414 N.1     1  ZINC000828026236   -0.3800
      2 C2         -4.1898    2.8962   50.4315 C.1     1  ZINC000828026236    0.2600
      3 C3         -2.9821    3.0930   51.1753 C.ar    1  ZINC000828026236   -0.0500
      4 C4         -3.0283    3.4352   52.5314 C.ar    1  ZINC000828026236    0.0100
      5 C5         -1.8321    3.6145   53.2057 C.ar    1  ZINC000828026236   -0.1600
      6 Br6        -1.8319    4.0771   55.0392 Br      1  ZINC000828026236   -0.0100
      7 C7         -0.6370    3.4519   52.5276 C.ar    1  ZINC000828026236    0.1800
      8 N8         -0.6152    3.1289   51.2486 N.ar    1  ZINC000828026236   -0.5000
      9 C9         -1.7283    2.9401   50.5582 C.ar    1  ZINC000828026236    0.3600
     10 N10        -1.6577    2.6021   49.2175 N.3     1  ZINC000828026236   -0.4900
     11 C11        -1.7143    1.1445   49.0381 C.3     1  ZINC000828026236    0.0500
     12 C12        -2.0077    0.8161   47.5687 C.3     1  ZINC000828026236    0.1100
     13 N13        -1.0795    1.5827   46.7334 N.pl3   1  ZINC000828026236   -0.4400
     14 C14        -0.7624    1.3967   45.4235 C.2     1  ZINC000828026236   -0.0300
     15 Br15       -1.4496    0.0623   44.2733 Br      1  ZINC000828026236    0.0200
     16 C16         0.1384    2.3508   45.1047 C.2     1  ZINC000828026236    0.0300
     17 N17         0.3603    3.0977   46.1997 N.2     1  ZINC000828026236   -0.4700
     18 C18        -0.3645    2.6470   47.1786 C.2     1  ZINC000828026236    0.2300
     19 C19        -0.4499    3.1690   48.5930 C.3     1  ZINC000828026236    0.1500
     20 H20        -3.9736    3.5571   53.0394 H       1  ZINC000828026236    0.1600
     21 H21         0.2950    3.5923   53.0548 H       1  ZINC000828026236    0.1800
     22 H22        -0.7578    0.7065   49.3237 H       1  ZINC000828026236    0.0700
     23 H23        -2.5035    0.7319   49.6666 H       1  ZINC000828026236    0.1100
     24 H24        -1.8642   -0.2503   47.3944 H       1  ZINC000828026236    0.1100
     25 H25        -3.0339    1.0936   47.3277 H       1  ZINC000828026236    0.1000
     26 H26         0.6004    2.4893   44.1384 H       1  ZINC000828026236    0.1800
     27 H27        -0.5180    4.2568   48.5804 H       1  ZINC000828026236    0.1200
     28 H28         0.4331    2.8613   49.1530 H       1  ZINC000828026236    0.1000
@<TRIPOS>BOND
     1     1     2    3
     2     2     3    1
     3     3     9   ar
     4     3     4   ar
     5     4     5   ar
     6     4    20    1
     7     5     6    1
     8     5     7   ar
     9     7     8   ar
    10     7    21    1
    11     8     9   ar
    12     9    10    1
    13    10    19    1
    14    10    11    1
    15    11    12    1
    16    11    22    1
    17    11    23    1
    18    12    13    1
    19    12    24    1
    20    12    25    1
    21    13    18    1
    22    13    14    1
    23    14    15    1
    24    14    16    2
    25    16    17    1
    26    16    26    1
    27    17    18    2
    28    18    19    1
    29    19    27    1
    30    19    28    1
@<TRIPOS>SUBSTRUCTURE
     1 ZINC000828026236        1 TEMP              0 ****  ****    0 ROOT


##########                                Name:      oleObject5.pdb
##########                DOCK_Rotatable_Bonds:                   5
##########                         Heavy_Atoms:                  24
##########                    Molecular_Weight:             323.438
##########                DOCK_Rotatable_Bonds:                   5
##########                       Formal_Charge:         0.000200074
##########                     HBond_Acceptors:                   4
##########                        HBond_Donors:                   2
##########                         Heavy_Atoms:                  24
##########                          Grid_Score:          -23.157106
##########                     Grid_vdw_energy:          -23.055513
##########                      Grid_es_energy:           -0.101594
##########           Internal_energy_repulsive:           13.795261

@<TRIPOS>MOLECULE
oleObject5.pdb
 49 51 1 0 0
SMALL
NO_CHARGES


@<TRIPOS>ATOM
      1 C         -15.1300   -3.4222   60.1530 C.3     1  UNL        -0.0394
      2 C         -14.1641   -3.3805   58.9729 C.ar    1  UNL        -0.0456
      3 C         -14.3316   -4.3350   57.9503 C.ar    1  UNL        -0.0590
      4 C         -13.4667   -4.3681   56.8475 C.ar    1  UNL        -0.0620
      5 C         -12.4169   -3.4460   56.7591 C.ar    1  UNL        -0.0619
      6 C         -12.2381   -2.4927   57.7715 C.ar    1  UNL        -0.0565
      7 C         -13.1059   -2.4385   58.8830 C.ar    1  UNL        -0.0188
      8 C         -12.8347   -1.3888   59.9692 C.3     1  UNL         0.0906
      9 N         -11.3847   -1.1423   60.0608 N.am    1  UNL        -0.3025
     10 C         -10.5281   -1.9442   60.7934 C.2     1  UNL         0.2156
     11 O         -10.8890   -3.0030   61.2778 O.2     1  UNL        -0.2774
     12 C          -9.0556   -1.4945   60.7436 C.3     1  UNL         0.0382
     13 C          -8.7349   -0.4704   61.8650 C.3     1  UNL        -0.0292
     14 C          -9.3318    0.9203   61.5576 C.3     1  UNL        -0.0041
     15 N          -8.8554    1.4159   60.2549 N.4     1  UNL        -0.3167
     16 C          -9.1866    0.5209   59.1318 C.3     1  UNL        -0.0041
     17 C          -8.6456   -0.9126   59.3628 C.3     1  UNL        -0.0292
     18 C         -13.6466   -0.1028   59.7375 C.ar    1  UNL         0.0681
     19 N         -14.1747    0.0660   58.5008 N.ar    1  UNL        -0.2587
     20 C         -14.9036    1.1668   58.2377 C.ar    1  UNL         0.0272
     21 C         -15.1485    2.1592   59.1979 C.ar    1  UNL        -0.0435
     22 C         -14.6131    1.9959   60.4834 C.ar    1  UNL        -0.0559
     23 C         -13.8487    0.8487   60.7688 C.ar    1  UNL        -0.0272
     24 C         -13.2745    0.6667   62.1682 C.3     1  UNL        -0.0379
     25 H         -15.9565   -4.1208   59.9732 H       1  UNL         0.0280
     26 H         -15.5804   -2.4426   60.3474 H       1  UNL         0.0280
     27 H         -14.6231   -3.7544   61.0655 H       1  UNL         0.0280
     28 H         -15.1362   -5.0627   58.0115 H       1  UNL         0.0626
     29 H         -13.6070   -5.1107   56.0672 H       1  UNL         0.0623
     30 H         -11.7396   -3.4718   55.9102 H       1  UNL         0.0623
     31 H         -11.4104   -1.7943   57.6915 H       1  UNL         0.0627
     32 H         -13.1476   -1.7797   60.9419 H       1  UNL         0.0624
     33 H         -10.9778   -0.6341   59.2865 H       1  UNL         0.1504
     34 H          -8.4524   -2.3944   60.9210 H       1  UNL         0.0402
     35 H          -7.6456   -0.3734   61.9599 H       1  UNL         0.0288
     36 H          -9.1001   -0.8259   62.8365 H       1  UNL         0.0288
     37 H          -9.0443    1.6237   62.3493 H       1  UNL         0.0428
     38 H         -10.4276    0.8532   61.5514 H       1  UNL         0.0428
     39 H          -7.8435    1.5312   60.2975 H       1  UNL         0.1222
     40 H          -8.7634    0.9229   58.2026 H       1  UNL         0.0428
     41 H         -10.2759    0.4858   59.0063 H       1  UNL         0.0428
     42 H          -7.5498   -0.8833   59.3047 H       1  UNL         0.0288
     43 H          -8.9833   -1.5755   58.5558 H       1  UNL         0.0288
     44 H         -15.3023    1.2548   57.2278 H       1  UNL         0.0840
     45 H         -15.7418    3.0345   58.9508 H       1  UNL         0.0639
     46 H         -14.7915    2.7492   61.2456 H       1  UNL         0.0627
     47 H         -13.5382    1.5048   62.8254 H       1  UNL         0.0280
     48 H         -12.1796    0.6065   62.1418 H       1  UNL         0.0280
     49 H         -13.6595   -0.2470   62.6368 H       1  UNL         0.0280
@<TRIPOS>BOND
     1     1     2    1
     2     1    25    1
     3     1    26    1
     4     1    27    1
     5     2     3   ar
     6     2     7   ar
     7     3     4   ar
     8     3    28    1
     9     4     5   ar
    10     4    29    1
    11     5     6   ar
    12     5    30    1
    13     6     7   ar
    14     6    31    1
    15     7     8    1
    16     8     9    1
    17     8    18    1
    18     8    32    1
    19     9    10   am
    20     9    33    1
    21    10    11    2
    22    10    12    1
    23    12    13    1
    24    12    17    1
    25    12    34    1
    26    13    14    1
    27    13    35    1
    28    13    36    1
    29    14    15    1
    30    14    37    1
    31    14    38    1
    32    15    16    1
    33    15    39    1
    34    16    17    1
    35    16    40    1
    36    16    41    1
    37    17    42    1
    38    17    43    1
    39    18    19   ar
    40    18    23   ar
    41    19    20   ar
    42    20    21   ar
    43    20    44    1
    44    21    22   ar
    45    21    45    1
    46    22    23   ar
    47    22    46    1
    48    23    24    1
    49    24    47    1
    50    24    48    1
    51    24    49    1
@<TRIPOS>SUBSTRUCTURE
     1 UNL         1 TEMP              0 ****  ****    0 ROOT


##########                                Name:    ZINC000482962466
##########                DOCK_Rotatable_Bonds:                   2
##########                         Heavy_Atoms:                  25
##########                    Molecular_Weight:             404.303
##########                DOCK_Rotatable_Bonds:                   2
##########                       Formal_Charge:           0.0200002
##########                     HBond_Acceptors:                   4
##########                        HBond_Donors:                   0
##########                         Heavy_Atoms:                  25
##########                          Grid_Score:          -20.714499
##########                     Grid_vdw_energy:          -20.072729
##########                      Grid_es_energy:           -0.641769
##########           Internal_energy_repulsive:            8.586821

@<TRIPOS>MOLECULE
ZINC000482962466
 47 50 1 0 0
SMALL
USER_CHARGES


@<TRIPOS>ATOM
      1 C1        -14.7283    0.5832   56.4261 C.3     1  ZINC000482962466   -0.1400
      2 C2        -13.6142   -0.4351   56.6768 C.3     1  ZINC000482962466    0.0700
      3 H3        -12.8828   -0.0123   57.3655 H       1  ZINC000482962466    0.0700
      4 C4        -12.9284   -0.7810   55.3502 C.3     1  ZINC000482962466    0.0800
      5 N5        -11.9935   -1.8925   55.5859 N.am    1  ZINC000482962466   -0.6100
      6 C6        -10.7131   -1.8222   55.1707 C.2     1  ZINC000482962466    0.5600
      7 O7         -9.9561   -2.7512   55.3751 O.2     1  ZINC000482962466   -0.5200
      8 C8        -10.2296   -0.6161   54.4674 C.ar    1  ZINC000482962466   -0.1100
      9 C9        -10.8124   -0.2413   53.2437 C.ar    1  ZINC000482962466   -0.0700
     10 C10       -10.3857    0.8624   52.5787 C.ar    1  ZINC000482962466   -0.1000
     11 C11        -9.3476    1.6481   53.1120 C.ar    1  ZINC000482962466   -0.0400
     12 C12        -8.8894    2.7944   52.4420 C.ar    1  ZINC000482962466   -0.0700
     13 C13        -7.8828    3.5357   52.9833 C.ar    1  ZINC000482962466   -0.0800
     14 Br14       -7.2709    5.0782   52.0766 Br      1  ZINC000482962466   -0.0400
     15 C15        -7.2969    3.1744   54.1963 C.ar    1  ZINC000482962466   -0.1000
     16 C16        -7.7143    2.0705   54.8735 C.ar    1  ZINC000482962466   -0.0900
     17 C17        -8.7519    1.2807   54.3457 C.ar    1  ZINC000482962466   -0.0500
     18 C18        -9.2095    0.1400   55.0212 C.ar    1  ZINC000482962466   -0.0700
     19 C19       -12.4981   -3.0834   56.2881 C.3     1  ZINC000482962466    0.0700
     20 C20       -13.2067   -2.6258   57.5668 C.3     1  ZINC000482962466    0.0800
     21 C21       -13.9074   -3.8211   58.2177 C.3     1  ZINC000482962466   -0.1100
     22 C22       -14.5445   -3.3696   59.5357 C.3     1  ZINC000482962466   -0.1500
     23 C23       -13.4628   -2.7662   60.4356 C.3     1  ZINC000482962466    0.0600
     24 O24       -12.8317   -1.6784   59.7573 O.3     1  ZINC000482962466   -0.3700
     25 C25       -12.1779   -2.0496   58.5418 C.3     1  ZINC000482962466    0.0400
     26 O26       -14.1720   -1.6236   57.2432 O.3     1  ZINC000482962466   -0.3500
     27 H27       -15.2166    0.8271   57.3695 H       1  ZINC000482962466    0.0700
     28 H28       -14.3026    1.4881   55.9926 H       1  ZINC000482962466    0.0800
     29 H29       -15.4594    0.1596   55.7375 H       1  ZINC000482962466    0.0700
     30 H30       -13.6774   -1.0806   54.6171 H       1  ZINC000482962466    0.0800
     31 H31       -12.3813    0.0872   54.9826 H       1  ZINC000482962466    0.1000
     32 H32       -11.6096   -0.8395   52.8275 H       1  ZINC000482962466    0.1400
     33 H33       -10.8429    1.1372   51.6396 H       1  ZINC000482962466    0.1400
     34 H34        -9.3329    3.0866   51.5016 H       1  ZINC000482962466    0.1400
     35 H35        -6.5005    3.7794   54.6038 H       1  ZINC000482962466    0.1400
     36 H36        -7.2513    1.8021   55.8115 H       1  ZINC000482962466    0.1400
     37 H37        -8.7673   -0.1489   55.9632 H       1  ZINC000482962466    0.1400
     38 H38       -13.2022   -3.6159   55.6486 H       1  ZINC000482962466    0.0900
     39 H39       -11.6656   -3.7389   56.5441 H       1  ZINC000482962466    0.1000
     40 H40       -14.6811   -4.1985   57.5491 H       1  ZINC000482962466    0.0800
     41 H41       -13.1790   -4.6074   58.4153 H       1  ZINC000482962466    0.0800
     42 H42       -15.3093   -2.6199   59.3327 H       1  ZINC000482962466    0.0800
     43 H43       -14.9966   -4.2269   60.0344 H       1  ZINC000482962466    0.0800
     44 H44       -13.9175   -2.4047   61.3579 H       1  ZINC000482962466    0.1000
     45 H45       -12.7196   -3.5279   60.6711 H       1  ZINC000482962466    0.0500
     46 H46       -11.4168   -2.8006   58.7530 H       1  ZINC000482962466    0.0600
     47 H47       -11.7090   -1.1712   58.0983 H       1  ZINC000482962466    0.1000
@<TRIPOS>BOND
     1     1     2    1
     2     1    27    1
     3     1    28    1
     4     1    29    1
     5     2     3    1
     6     2    26    1
     7     2     4    1
     8     4     5    1
     9     4    30    1
    10     4    31    1
    11     5     6   am
    12     5    19    1
    13     6     7    2
    14     6     8    1
    15     8    18   ar
    16     8     9   ar
    17     9    10   ar
    18     9    32    1
    19    10    11   ar
    20    10    33    1
    21    11    17   ar
    22    11    12   ar
    23    12    13   ar
    24    12    34    1
    25    13    14    1
    26    13    15   ar
    27    15    16   ar
    28    15    35    1
    29    16    17   ar
    30    16    36    1
    31    17    18   ar
    32    18    37    1
    33    19    20    1
    34    19    38    1
    35    19    39    1
    36    20    25    1
    37    20    21    1
    38    20    26    1
    39    21    22    1
    40    21    40    1
    41    21    41    1
    42    22    23    1
    43    22    42    1
    44    22    43    1
    45    23    24    1
    46    23    44    1
    47    23    45    1
    48    24    25    1
    49    25    46    1
    50    25    47    1
@<TRIPOS>SUBSTRUCTURE
     1 ZINC000482962466        1 TEMP              0 ****  ****    0 ROOT


##########                                Name:    ZINC000431691749
##########                DOCK_Rotatable_Bonds:                   4
##########                         Heavy_Atoms:                  24
##########                    Molecular_Weight:             328.454
##########                DOCK_Rotatable_Bonds:                   4
##########                       Formal_Charge:         -0.00999957
##########                     HBond_Acceptors:                   4
##########                        HBond_Donors:                   0
##########                         Heavy_Atoms:                  24
##########                          Grid_Score:          -19.771326
##########                     Grid_vdw_energy:          -19.978436
##########                      Grid_es_energy:            0.207109
##########           Internal_energy_repulsive:          143.201019

@<TRIPOS>MOLECULE
ZINC000431691749
 52 54 1 0 0
SMALL
USER_CHARGES


@<TRIPOS>ATOM
      1 C1        -12.1969   -4.6292   57.4537 C.3     1  ZINC000431691749   -0.1200
      2 C2        -13.1067   -3.8168   58.3386 C.ar    1  ZINC000431691749   -0.0800
      3 C3        -14.3629   -4.2939   58.6621 C.ar    1  ZINC000431691749   -0.1200
      4 C4        -15.1976   -3.5486   59.4740 C.ar    1  ZINC000431691749   -0.1100
      5 C5        -14.7757   -2.3264   59.9626 C.ar    1  ZINC000431691749   -0.1100
      6 C6        -13.5189   -1.8495   59.6397 C.ar    1  ZINC000431691749   -0.0800
      7 C7        -13.0590   -0.5167   60.1721 C.3     1  ZINC000431691749    0.2000
      8 H8        -13.0042   -0.5594   61.2599 H       1  ZINC000431691749    0.1100
      9 N9        -11.7351   -0.2042   59.6283 N.am    1  ZINC000431691749   -0.5700
     10 C10       -10.6594    0.0987   60.3817 C.2     1  ZINC000431691749    0.5200
     11 O11       -10.6068    0.1617   61.5912 O.2     1  ZINC000431691749   -0.4400
     12 C12        -9.5288    0.3434   59.4021 C.3     1  ZINC000431691749    0.0900
     13 H13        -9.1601    1.3653   59.4895 H       1  ZINC000431691749    0.1300
     14 C14        -8.3941   -0.6578   59.6288 C.3     1  ZINC000431691749   -0.1500
     15 N15       -10.1577    0.1298   58.0871 N.am    1  ZINC000431691749   -0.6000
     16 C16        -9.5084    0.2385   56.7784 C.3     1  ZINC000431691749    0.1500
     17 C17       -10.1359    1.3058   55.8662 C.3     1  ZINC000431691749   -0.1600
     18 C18        -9.1544    2.3082   56.4958 C.3     1  ZINC000431691749   -0.1400
     19 C19        -8.2398    1.1076   56.7904 C.3     1  ZINC000431691749   -0.1500
     20 C20       -11.4429   -0.1899   58.3228 C.2     1  ZINC000431691749    0.7000
     21 O21       -12.2504   -0.4317   57.4472 O.2     1  ZINC000431691749   -0.5300
     22 C22       -14.0517    0.5697   59.7537 C.3     1  ZINC000431691749   -0.0700
     23 C23       -14.8485    0.0918   58.5382 C.3     1  ZINC000431691749   -0.1400
     24 C24       -15.0103    0.8577   60.9109 C.3     1  ZINC000431691749   -0.1400
     25 C25       -13.2889    1.8463   59.3936 C.3     1  ZINC000431691749   -0.1600
     26 C26       -12.6828   -2.5966   58.8316 C.ar    1  ZINC000431691749   -0.1100
     27 H27       -11.5907   -5.2942   58.0687 H       1  ZINC000431691749    0.0700
     28 H28       -12.7964   -5.2204   56.7614 H       1  ZINC000431691749    0.0700
     29 H29       -11.5456   -3.9606   56.8908 H       1  ZINC000431691749    0.0700
     30 H30       -14.6926   -5.2490   58.2804 H       1  ZINC000431691749    0.1200
     31 H31       -16.1794   -3.9212   59.7262 H       1  ZINC000431691749    0.1200
     32 H32       -15.4280   -1.7439   60.5963 H       1  ZINC000431691749    0.1100
     33 H33        -8.7761   -1.6721   59.5134 H       1  ZINC000431691749    0.0700
     34 H34        -7.6035   -0.4821   58.8992 H       1  ZINC000431691749    0.0800
     35 H35        -7.9944   -0.5322   60.6350 H       1  ZINC000431691749    0.0800
     36 H36        -9.3714   -0.7275   56.2923 H       1  ZINC000431691749    0.1000
     37 H37        -9.9605    1.1308   54.8047 H       1  ZINC000431691749    0.0900
     38 H38       -11.1809    1.5156   56.0946 H       1  ZINC000431691749    0.0700
     39 H39        -8.7320    3.0137   55.7804 H       1  ZINC000431691749    0.0700
     40 H40        -9.5407    2.7932   57.3923 H       1  ZINC000431691749    0.0800
     41 H41        -7.7539    1.1575   57.7648 H       1  ZINC000431691749    0.1000
     42 H42        -7.5459    0.8784   55.9815 H       1  ZINC000431691749    0.0900
     43 H43       -15.3919   -0.8176   58.7947 H       1  ZINC000431691749    0.0600
     44 H44       -15.5558    0.8657   58.2402 H       1  ZINC000431691749    0.0600
     45 H45       -14.1656   -0.1134   57.7138 H       1  ZINC000431691749    0.0600
     46 H46       -14.4426    1.1981   61.7768 H       1  ZINC000431691749    0.0500
     47 H47       -15.7175    1.6316   60.6128 H       1  ZINC000431691749    0.0600
     48 H48       -15.5536   -0.0517   61.1674 H       1  ZINC000431691749    0.0500
     49 H49       -12.2735    1.5898   59.0917 H       1  ZINC000431691749    0.0700
     50 H50       -13.7954    2.3526   58.5720 H       1  ZINC000431691749    0.0400
     51 H51       -13.2544    2.5057   60.2609 H       1  ZINC000431691749    0.1000
     52 H52       -11.7009   -2.2240   58.5795 H       1  ZINC000431691749    0.1300
@<TRIPOS>BOND
     1     1     2    1
     2     1    27    1
     3     1    28    1
     4     1    29    1
     5     2    26   ar
     6     2     3   ar
     7     3     4   ar
     8     3    30    1
     9     4     5   ar
    10     4    31    1
    11     5     6   ar
    12     5    32    1
    13     6     7    1
    14     6    26   ar
    15     7     8    1
    16     7     9    1
    17     7    22    1
    18     9    20   am
    19     9    10   am
    20    10    11    2
    21    10    12    1
    22    12    13    1
    23    12    14    1
    24    12    15    1
    25    14    33    1
    26    14    34    1
    27    14    35    1
    28    15    16    1
    29    15    20   am
    30    16    19    1
    31    16    17    1
    32    16    36    1
    33    17    18    1
    34    17    37    1
    35    17    38    1
    36    18    19    1
    37    18    39    1
    38    18    40    1
    39    19    41    1
    40    19    42    1
    41    20    21    2
    42    22    23    1
    43    22    24    1
    44    22    25    1
    45    23    43    1
    46    23    44    1
    47    23    45    1
    48    24    46    1
    49    24    47    1
    50    24    48    1
    51    25    49    1
    52    25    50    1
    53    25    51    1
    54    26    52    1
@<TRIPOS>SUBSTRUCTURE
     1 ZINC000431691749        1 TEMP              0 ****  ****    0 ROOT

