
##########                                Name:     oleObject70.pdb
##########                DOCK_Rotatable_Bonds:                   9
##########                         Heavy_Atoms:                  35
##########                    Molecular_Weight:             504.458
##########                DOCK_Rotatable_Bonds:                   9
##########                       Formal_Charge:          0.00010002
##########                     HBond_Acceptors:                   6
##########                        HBond_Donors:                   2
##########                         Heavy_Atoms:                  35
##########                          Grid_Score:          -40.899536
##########                     Grid_vdw_energy:          -40.402412
##########                      Grid_es_energy:           -0.497123
##########           Internal_energy_repulsive:           22.064875

@<TRIPOS>MOLECULE
oleObject70.pdb
 62 65 1 0 0
SMALL
NO_CHARGES


@<TRIPOS>ATOM
      1 C          -0.2730    6.6861   50.6715 C.ar    1  UNL        -0.0620
      2 C          -1.5847    6.7545   51.1621 C.ar    1  UNL        -0.0590
      3 C          -2.5441    5.7929   50.7895 C.ar    1  UNL        -0.0456
      4 C          -2.1784    4.7368   49.9162 C.ar    1  UNL        -0.0187
      5 C          -0.8575    4.6909   49.4193 C.ar    1  UNL        -0.0565
      6 C           0.0892    5.6553   49.7951 C.ar    1  UNL        -0.0619
      7 C          -3.1992    3.6678   49.4872 C.3     1  UNL         0.0909
      8 C          -2.5835    2.4926   48.7083 C.ar    1  UNL         0.0681
      9 C          -1.6643    1.5966   49.3112 C.ar    1  UNL        -0.0272
     10 C          -1.1412    0.5483   48.5307 C.ar    1  UNL        -0.0559
     11 C          -1.5462    0.4225   47.1942 C.ar    1  UNL        -0.0435
     12 C          -2.4653    1.3492   46.6809 C.ar    1  UNL         0.0272
     13 N          -2.9715    2.3544   47.4189 N.ar    1  UNL        -0.2587
     14 C          -1.2239    1.7349   50.7643 C.3     1  UNL        -0.0379
     15 N          -4.1123    3.2739   50.5828 N.am    1  UNL        -0.2987
     16 C          -5.3140    2.5882   50.4553 C.2     1  UNL         0.2437
     17 O          -5.7494    2.2184   49.3784 O.2     1  UNL        -0.2719
     18 C          -6.0610    2.3070   51.7372 C.ar    1  UNL         0.0371
     19 C          -7.3450    1.7169   51.7451 C.ar    1  UNL        -0.0494
     20 C          -8.0108    1.4678   52.9566 C.ar    1  UNL        -0.0570
     21 C          -7.4100    1.8024   54.1814 C.ar    1  UNL        -0.0341
     22 C          -6.1329    2.3872   54.1829 C.ar    1  UNL        -0.0570
     23 C          -5.4662    2.6378   52.9726 C.ar    1  UNL        -0.0494
     24 C          -8.1302    1.5249   55.4901 C.3     1  UNL         0.0208
     25 N          -8.0237    0.1103   55.8694 N.4     1  UNL        -0.3086
     26 C          -8.3379   -0.1504   57.2803 C.3     1  UNL         0.0223
     27 C          -8.4933   -1.6407   57.5515 C.ar    1  UNL        -0.0154
     28 C          -7.3892   -2.3740   58.0269 C.ar    1  UNL        -0.0548
     29 C          -7.5061   -3.7487   58.2896 C.ar    1  UNL        -0.0431
     30 C          -8.7314   -4.4001   58.0798 C.ar    1  UNL         0.0421
     31 C          -9.8393   -3.6781   57.6093 C.ar    1  UNL        -0.0245
     32 C          -9.7237   -2.3025   57.3458 C.ar    1  UNL         0.0465
     33 CL        -11.1391   -1.4420   56.7679 Cl      1  UNL        -0.0839
     34 CL         -8.8787   -6.1135   58.4079 Cl      1  UNL        -0.0843
     35 C          -3.9627    5.9344   51.3325 C.3     1  UNL        -0.0394
     36 H           0.4574    7.4357   50.9620 H       1  UNL         0.0623
     37 H          -1.8574    7.5654   51.8318 H       1  UNL         0.0626
     38 H          -0.5573    3.9111   48.7274 H       1  UNL         0.0627
     39 H           1.1006    5.6050   49.4025 H       1  UNL         0.0623
     40 H          -3.8647    4.1652   48.7753 H       1  UNL         0.0624
     41 H          -0.4303   -0.1571   48.9514 H       1  UNL         0.0627
     42 H          -1.1568   -0.3753   46.5688 H       1  UNL         0.0639
     43 H          -2.8060    1.2877   45.6482 H       1  UNL         0.0840
     44 H          -0.6616    2.6636   50.9201 H       1  UNL         0.0280
     45 H          -0.5734    0.9056   51.0687 H       1  UNL         0.0280
     46 H          -2.0851    1.7377   51.4434 H       1  UNL         0.0280
     47 H          -3.8372    3.5363   51.5190 H       1  UNL         0.1508
     48 H          -7.8418    1.4447   50.8195 H       1  UNL         0.0631
     49 H          -8.9960    1.0096   52.9437 H       1  UNL         0.0626
     50 H          -5.6536    2.6462   55.1230 H       1  UNL         0.0626
     51 H          -4.4788    3.0904   53.0000 H       1  UNL         0.0631
     52 H          -9.1870    1.8029   55.3853 H       1  UNL         0.0479
     53 H          -7.6985    2.1540   56.2794 H       1  UNL         0.0479
     54 H          -7.0780   -0.2168   55.6728 H       1  UNL         0.1229
     55 H          -9.2687    0.3655   57.5495 H       1  UNL         0.0480
     56 H          -7.5452    0.2554   57.9220 H       1  UNL         0.0480
     57 H          -6.4383   -1.8765   58.1965 H       1  UNL         0.0627
     58 H          -6.6489   -4.3061   58.6566 H       1  UNL         0.0639
     59 H         -10.7876   -4.1835   57.4506 H       1  UNL         0.0654
     60 H          -4.1005    6.8836   51.8653 H       1  UNL         0.0280
     61 H          -4.1976    5.1264   52.0364 H       1  UNL         0.0280
     62 H          -4.7024    5.9086   50.5224 H       1  UNL         0.0280
@<TRIPOS>BOND
     1     1     2   ar
     2     1     6   ar
     3     1    36    1
     4     2     3   ar
     5     2    37    1
     6     3     4   ar
     7     3    35    1
     8     4     5   ar
     9     4     7    1
    10     5     6   ar
    11     5    38    1
    12     6    39    1
    13     7     8    1
    14     7    15    1
    15     7    40    1
    16     8     9   ar
    17     8    13   ar
    18     9    10   ar
    19     9    14    1
    20    10    11   ar
    21    10    41    1
    22    11    12   ar
    23    11    42    1
    24    12    13   ar
    25    12    43    1
    26    14    44    1
    27    14    45    1
    28    14    46    1
    29    15    16   am
    30    15    47    1
    31    16    17    2
    32    16    18    1
    33    18    19   ar
    34    18    23   ar
    35    19    20   ar
    36    19    48    1
    37    20    21   ar
    38    20    49    1
    39    21    22   ar
    40    21    24    1
    41    22    23   ar
    42    22    50    1
    43    23    51    1
    44    24    25    1
    45    24    52    1
    46    24    53    1
    47    25    26    1
    48    25    54    1
    49    26    27    1
    50    26    55    1
    51    26    56    1
    52    27    28   ar
    53    27    32   ar
    54    28    29   ar
    55    28    57    1
    56    29    30   ar
    57    29    58    1
    58    30    31   ar
    59    30    34    1
    60    31    32   ar
    61    31    59    1
    62    32    33    1
    63    35    60    1
    64    35    61    1
    65    35    62    1
@<TRIPOS>SUBSTRUCTURE
     1 UNL         1 TEMP              0 ****  ****    0 ROOT


##########                                Name:     oleObject52.pdb
##########                DOCK_Rotatable_Bonds:                  10
##########                         Heavy_Atoms:                  38
##########                    Molecular_Weight:              533.07
##########                DOCK_Rotatable_Bonds:                  10
##########                       Formal_Charge:         0.000300027
##########                     HBond_Acceptors:                   8
##########                        HBond_Donors:                   0
##########                         Heavy_Atoms:                  38
##########                          Grid_Score:          -40.892269
##########                     Grid_vdw_energy:          -40.678070
##########                      Grid_es_energy:           -0.214200
##########           Internal_energy_repulsive:           23.610935

@<TRIPOS>MOLECULE
oleObject52.pdb
 71 74 1 0 0
SMALL
NO_CHARGES


@<TRIPOS>ATOM
      1 C          -0.1072    1.5121   50.1361 C.ar    1  UNL        -0.0596
      2 C          -0.9964    1.8582   49.1076 C.ar    1  UNL        -0.0314
      3 C          -2.1903    2.5516   49.3998 C.ar    1  UNL         0.0800
      4 C          -2.4916    2.9028   50.7362 C.ar    1  UNL         0.0089
      5 C          -1.5899    2.5424   51.7606 C.ar    1  UNL        -0.0541
      6 C          -0.4049    1.8530   51.4624 C.ar    1  UNL        -0.0617
      7 C          -3.7957    3.6531   51.0471 C.3     1  UNL         0.0953
      8 C          -5.0388    2.7593   50.8932 C.ar    1  UNL         0.0684
      9 C          -6.3197    3.2993   50.6152 C.ar    1  UNL        -0.0272
     10 C          -7.4049    2.4136   50.4770 C.ar    1  UNL        -0.0559
     11 C          -7.1850    1.0358   50.6161 C.ar    1  UNL        -0.0435
     12 C          -5.8840    0.5869   50.8871 C.ar    1  UNL         0.0272
     13 N          -4.8398    1.4257   51.0211 N.ar    1  UNL        -0.2587
     14 C          -6.5531    4.7958   50.4468 C.3     1  UNL        -0.0379
     15 N          -3.7601    4.4459   52.3092 N.am    1  UNL        -0.2917
     16 C          -4.0241    3.8290   53.5368 C.2     1  UNL         0.2180
     17 O          -4.0275    2.6126   53.6271 O.2     1  UNL        -0.2772
     18 C          -3.9689    4.7169   54.8063 C.3     1  UNL         0.0385
     19 C          -3.5014    3.9236   56.0505 C.3     1  UNL        -0.0289
     20 C          -4.5983    2.9749   56.5802 C.3     1  UNL        -0.0010
     21 N          -5.8460    3.7085   56.8955 N.4     1  UNL        -0.3010
     22 C          -6.3725    4.4698   55.7414 C.3     1  UNL        -0.0010
     23 C          -5.3177    5.4176   55.1192 C.3     1  UNL        -0.0289
     24 C          -6.9003    2.8773   57.5181 C.3     1  UNL         0.0222
     25 C          -6.9421    1.4324   56.9792 C.3     1  UNL         0.0661
     26 O          -8.0732    0.7738   57.5764 O.3     1  UNL        -0.3432
     27 C          -8.1777   -0.5974   57.7088 C.ar    1  UNL         0.0937
     28 C          -7.3204   -1.3354   58.5517 C.ar    1  UNL        -0.0289
     29 C          -7.4607   -2.7292   58.6577 C.ar    1  UNL        -0.0417
     30 C          -8.4561   -3.3984   57.9249 C.ar    1  UNL         0.0537
     31 C          -9.3123   -2.6670   57.0844 C.ar    1  UNL        -0.0230
     32 C          -9.1744   -1.2731   56.9765 C.ar    1  UNL         0.0721
     33 CL        -10.2618   -0.3957   55.9168 Cl      1  UNL        -0.0814
     34 C          -8.5973   -4.8219   58.0346 C.1     1  UNL         0.0992
     35 N          -8.7021   -5.9697   58.1289 N.1     1  UNL        -0.1924
     36 C          -3.4758    5.8923   52.1865 C.3     1  UNL         0.0037
     37 O          -3.0878    2.8964   48.4035 O.3     1  UNL        -0.3490
     38 C          -3.0177    2.3969   47.0574 C.3     1  UNL         0.0422
     39 H           0.8100    0.9783   49.9048 H       1  UNL         0.0624
     40 H          -0.7467    1.5813   48.0890 H       1  UNL         0.0651
     41 H          -1.8001    2.7923   52.7949 H       1  UNL         0.0627
     42 H           0.2813    1.5832   52.2600 H       1  UNL         0.0623
     43 H          -3.8737    4.3997   50.2490 H       1  UNL         0.0627
     44 H          -8.4020    2.7858   50.2599 H       1  UNL         0.0627
     45 H          -8.0035    0.3299   50.5116 H       1  UNL         0.0639
     46 H          -5.6698   -0.4753   50.9977 H       1  UNL         0.0840
     47 H          -6.1424    5.3581   51.2920 H       1  UNL         0.0280
     48 H          -7.6218    5.0351   50.3833 H       1  UNL         0.0280
     49 H          -6.0765    5.1651   49.5300 H       1  UNL         0.0280
     50 H          -3.2456    5.5183   54.6226 H       1  UNL         0.0402
     51 H          -3.2373    4.6319   56.8464 H       1  UNL         0.0288
     52 H          -2.5911    3.3549   55.8285 H       1  UNL         0.0288
     53 H          -4.2068    2.4759   57.4742 H       1  UNL         0.0431
     54 H          -4.8039    2.2020   55.8277 H       1  UNL         0.0431
     55 H          -7.2350    5.0711   56.0565 H       1  UNL         0.0431
     56 H          -6.7298    3.7701   54.9754 H       1  UNL         0.0431
     57 H          -5.1310    6.2342   55.8287 H       1  UNL         0.0288
     58 H          -5.7224    5.8818   54.2107 H       1  UNL         0.0288
     59 H          -7.8823    3.3447   57.3674 H       1  UNL         0.0455
     60 H          -6.7238    2.8235   58.6003 H       1  UNL         0.0455
     61 H          -6.0133    0.9148   57.2513 H       1  UNL         0.0586
     62 H          -7.0460    1.4377   55.8874 H       1  UNL         0.0586
     63 H          -6.5445   -0.8425   59.1285 H       1  UNL         0.0651
     64 H          -6.7948   -3.2879   59.3104 H       1  UNL         0.0638
     65 H         -10.0844   -3.1772   56.5145 H       1  UNL         0.0653
     66 H          -3.7955    6.2695   51.2084 H       1  UNL         0.0433
     67 H          -2.4005    6.0740   52.3042 H       1  UNL         0.0433
     68 H          -4.0285    6.4570   52.9462 H       1  UNL         0.0433
     69 H          -3.8434    2.8102   46.4653 H       1  UNL         0.0535
     70 H          -3.0985    1.3025   47.0498 H       1  UNL         0.0535
     71 H          -2.0714    2.6922   46.5870 H       1  UNL         0.0535
@<TRIPOS>BOND
     1     1     2   ar
     2     1     6   ar
     3     1    39    1
     4     2     3   ar
     5     2    40    1
     6     3     4   ar
     7     3    37    1
     8     4     5   ar
     9     4     7    1
    10     5     6   ar
    11     5    41    1
    12     6    42    1
    13     7     8    1
    14     7    15    1
    15     7    43    1
    16     8     9   ar
    17     8    13   ar
    18     9    10   ar
    19     9    14    1
    20    10    11   ar
    21    10    44    1
    22    11    12   ar
    23    11    45    1
    24    12    13   ar
    25    12    46    1
    26    14    47    1
    27    14    48    1
    28    14    49    1
    29    15    16   am
    30    15    36    1
    31    16    17    2
    32    16    18    1
    33    18    19    1
    34    18    23    1
    35    18    50    1
    36    19    20    1
    37    19    51    1
    38    19    52    1
    39    20    21    1
    40    20    53    1
    41    20    54    1
    42    21    22    1
    43    21    24    1
    44    22    23    1
    45    22    55    1
    46    22    56    1
    47    23    57    1
    48    23    58    1
    49    24    25    1
    50    24    59    1
    51    24    60    1
    52    25    26    1
    53    25    61    1
    54    25    62    1
    55    26    27    1
    56    27    28   ar
    57    27    32   ar
    58    28    29   ar
    59    28    63    1
    60    29    30   ar
    61    29    64    1
    62    30    31   ar
    63    30    34    1
    64    31    32   ar
    65    31    65    1
    66    32    33    1
    67    34    35    3
    68    36    66    1
    69    36    67    1
    70    36    68    1
    71    37    38    1
    72    38    69    1
    73    38    70    1
    74    38    71    1
@<TRIPOS>SUBSTRUCTURE
     1 UNL         1 TEMP              0 ****  ****    0 ROOT


##########                                Name:     oleObject80.pdb
##########                DOCK_Rotatable_Bonds:                  14
##########                         Heavy_Atoms:                  51
##########                    Molecular_Weight:             703.283
##########                DOCK_Rotatable_Bonds:                  14
##########                       Formal_Charge:         0.000299793
##########                     HBond_Acceptors:                  10
##########                        HBond_Donors:                   3
##########                         Heavy_Atoms:                  51
##########                          Grid_Score:          -40.219696
##########                     Grid_vdw_energy:          -38.712261
##########                      Grid_es_energy:           -1.507435
##########           Internal_energy_repulsive:           30.156462

@<TRIPOS>MOLECULE
oleObject80.pdb
 94 99 1 0 0
SMALL
NO_CHARGES


@<TRIPOS>ATOM
      1 C         -11.2238    1.4979   53.3963 C.ar    1  UNL        -0.0620
      2 C         -12.0768    2.4586   53.9574 C.ar    1  UNL        -0.0590
      3 C         -13.4692    2.2499   53.9975 C.ar    1  UNL        -0.0456
      4 C         -14.0167    1.0555   53.4638 C.ar    1  UNL        -0.0185
      5 C         -13.1433    0.0967   52.9038 C.ar    1  UNL        -0.0565
      6 C         -11.7583    0.3151   52.8702 C.ar    1  UNL        -0.0619
      7 C         -15.5352    0.8039   53.4859 C.3     1  UNL         0.0931
      8 C         -16.0349   -0.0842   52.3325 C.ar    1  UNL         0.0683
      9 C         -16.1708    0.4186   51.0137 C.ar    1  UNL        -0.0272
     10 C         -16.6397   -0.4495   50.0098 C.ar    1  UNL        -0.0559
     11 C         -16.9505   -1.7757   50.3426 C.ar    1  UNL        -0.0435
     12 C         -16.7783   -2.1928   51.6704 C.ar    1  UNL         0.0272
     13 N         -16.3306   -1.3703   52.6373 N.ar    1  UNL        -0.2587
     14 C         -15.8254    1.8589   50.6515 C.3     1  UNL        -0.0379
     15 N         -16.0647    0.3983   54.8199 N.am    1  UNL        -0.2918
     16 C         -15.4330   -0.6084   55.5588 C.2     1  UNL         0.2180
     17 O         -14.3099   -0.9847   55.2650 O.2     1  UNL        -0.2772
     18 C         -16.0489   -0.9676   56.9343 C.3     1  UNL         0.0385
     19 C         -15.5933    0.0087   58.0468 C.3     1  UNL        -0.0289
     20 C         -14.1235   -0.2261   58.4513 C.3     1  UNL        -0.0010
     21 N         -13.8969   -1.6174   58.8978 N.4     1  UNL        -0.3010
     22 C         -14.2927   -2.6247   57.8843 C.3     1  UNL        -0.0010
     23 C         -15.7427   -2.4236   57.3755 C.3     1  UNL        -0.0289
     24 C         -12.5279   -1.7984   59.4296 C.3     1  UNL         0.0222
     25 C         -12.1972   -0.8608   60.6091 C.3     1  UNL         0.0661
     26 O         -10.8071   -1.0388   60.9345 O.3     1  UNL        -0.3432
     27 C          -9.7803   -0.3823   60.2837 C.ar    1  UNL         0.0937
     28 C          -9.0440   -0.9870   59.2448 C.ar    1  UNL        -0.0284
     29 C          -8.0065   -0.2835   58.6111 C.ar    1  UNL        -0.0381
     30 C          -7.6958    1.0338   58.9901 C.ar    1  UNL         0.0319
     31 C          -8.4178    1.6284   60.0430 C.ar    1  UNL        -0.0194
     32 C          -9.4553    0.9290   60.6812 C.ar    1  UNL         0.0727
     33 CL        -10.3272    1.7149   61.9843 Cl      1  UNL        -0.0814
     34 N          -6.6470    1.6878   58.3461 N.pl3   1  UNL        -0.3136
     35 C          -6.3414    1.8413   56.9942 C.ar    1  UNL         0.0489
     36 C          -7.2601    1.4087   56.0216 C.ar    1  UNL         0.0488
     37 N          -7.0494    1.5379   54.6964 N.ar    1  UNL        -0.2543
     38 C          -5.9168    2.1209   54.2457 C.ar    1  UNL         0.0703
     39 C          -4.9471    2.6010   55.1640 C.ar    1  UNL        -0.0339
     40 C          -5.1631    2.4651   56.5447 C.ar    1  UNL        -0.0371
     41 C          -5.7554    2.2345   52.7532 C.ar    1  UNL         0.0009
     42 C          -4.4792    2.1691   52.1355 C.ar    1  UNL        -0.0402
     43 C          -4.3147    2.2748   50.7385 C.ar    1  UNL         0.0375
     44 C          -5.4583    2.4523   49.9324 C.ar    1  UNL        -0.0496
     45 C          -6.7308    2.5257   50.5157 C.ar    1  UNL        -0.0608
     46 C          -6.8779    2.4204   51.9061 C.ar    1  UNL        -0.0528
     47 C          -2.9275    2.1984   50.1477 C.2     1  UNL         0.2403
     48 O          -2.6791    2.5673   49.0138 O.2     1  UNL        -0.2722
     49 N          -1.9238    1.6888   50.9439 N.am    1  UNL        -0.3251
     50 C         -17.2194    1.1582   55.3495 C.3     1  UNL         0.0037
     51 C         -14.3478    3.3287   54.6242 C.3     1  UNL        -0.0394
     52 H         -10.1514    1.6694   53.3716 H       1  UNL         0.0623
     53 H         -11.6506    3.3714   54.3642 H       1  UNL         0.0626
     54 H         -13.5299   -0.8321   52.4963 H       1  UNL         0.0627
     55 H         -11.1007   -0.4334   52.4375 H       1  UNL         0.0623
     56 H         -15.9747    1.7834   53.2811 H       1  UNL         0.0626
     57 H         -16.7615   -0.1028   48.9875 H       1  UNL         0.0627
     58 H         -17.3144   -2.4664   49.5878 H       1  UNL         0.0639
     59 H         -17.0055   -3.2151   51.9699 H       1  UNL         0.0840
     60 H         -16.5243    2.5610   51.1231 H       1  UNL         0.0280
     61 H         -15.8728    2.0260   49.5683 H       1  UNL         0.0280
     62 H         -14.8102    2.1183   50.9767 H       1  UNL         0.0280
     63 H         -17.1385   -0.8964   56.8375 H       1  UNL         0.0402
     64 H         -16.2286   -0.1328   58.9307 H       1  UNL         0.0288
     65 H         -15.7270    1.0494   57.7327 H       1  UNL         0.0288
     66 H         -13.8695    0.4716   59.2597 H       1  UNL         0.0431
     67 H         -13.4725    0.0040   57.5968 H       1  UNL         0.0431
     68 H         -14.2239   -3.6353   58.3038 H       1  UNL         0.0431
     69 H         -13.5989   -2.5782   57.0358 H       1  UNL         0.0431
     70 H         -16.4299   -2.6927   58.1881 H       1  UNL         0.0288
     71 H         -15.9488   -3.1188   56.5518 H       1  UNL         0.0288
     72 H         -11.8018   -1.5978   58.6310 H       1  UNL         0.0455
     73 H         -12.3864   -2.8391   59.7496 H       1  UNL         0.0455
     74 H         -12.8201   -1.1101   61.4767 H       1  UNL         0.0586
     75 H         -12.3884    0.1787   60.3137 H       1  UNL         0.0586
     76 H          -9.2633   -1.9992   58.9211 H       1  UNL         0.0652
     77 H          -7.4468   -0.7629   57.8127 H       1  UNL         0.0644
     78 H          -8.1661    2.6267   60.3869 H       1  UNL         0.0659
     79 H          -5.9826    2.1236   58.9728 H       1  UNL         0.1528
     80 H          -8.1954    0.9328   56.3130 H       1  UNL         0.0861
     81 H          -4.0300    3.0668   54.8203 H       1  UNL         0.0646
     82 H          -4.4322    2.8566   57.2452 H       1  UNL         0.0644
     83 H          -3.5940    2.0516   52.7509 H       1  UNL         0.0638
     84 H          -5.3753    2.5373   48.8534 H       1  UNL         0.0631
     85 H          -7.6071    2.6634   49.8885 H       1  UNL         0.0623
     86 H          -7.8782    2.4747   52.3262 H       1  UNL         0.0630
     87 H          -0.9801    1.6199   50.5874 H       1  UNL         0.1458
     88 H          -2.1477    1.3892   51.8844 H       1  UNL         0.1458
     89 H         -17.6317    1.8458   54.6037 H       1  UNL         0.0433
     90 H         -16.9140    1.7529   56.2182 H       1  UNL         0.0433
     91 H         -18.0097    0.4598   55.6518 H       1  UNL         0.0433
     92 H         -13.7506    4.1597   55.0199 H       1  UNL         0.0280
     93 H         -14.9353    2.9277   55.4590 H       1  UNL         0.0280
     94 H         -15.0438    3.7510   53.8889 H       1  UNL         0.0280
@<TRIPOS>BOND
     1     1     2   ar
     2     1     6   ar
     3     1    52    1
     4     2     3   ar
     5     2    53    1
     6     3     4   ar
     7     3    51    1
     8     4     5   ar
     9     4     7    1
    10     5     6   ar
    11     5    54    1
    12     6    55    1
    13     7     8    1
    14     7    15    1
    15     7    56    1
    16     8     9   ar
    17     8    13   ar
    18     9    10   ar
    19     9    14    1
    20    10    11   ar
    21    10    57    1
    22    11    12   ar
    23    11    58    1
    24    12    13   ar
    25    12    59    1
    26    14    60    1
    27    14    61    1
    28    14    62    1
    29    15    16   am
    30    15    50    1
    31    16    17    2
    32    16    18    1
    33    18    19    1
    34    18    23    1
    35    18    63    1
    36    19    20    1
    37    19    64    1
    38    19    65    1
    39    20    21    1
    40    20    66    1
    41    20    67    1
    42    21    22    1
    43    21    24    1
    44    22    23    1
    45    22    68    1
    46    22    69    1
    47    23    70    1
    48    23    71    1
    49    24    25    1
    50    24    72    1
    51    24    73    1
    52    25    26    1
    53    25    74    1
    54    25    75    1
    55    26    27    1
    56    27    28   ar
    57    27    32   ar
    58    28    29   ar
    59    28    76    1
    60    29    30   ar
    61    29    77    1
    62    30    31   ar
    63    30    34    1
    64    31    32   ar
    65    31    78    1
    66    32    33    1
    67    34    35    1
    68    34    79    1
    69    35    36   ar
    70    35    40   ar
    71    36    37   ar
    72    36    80    1
    73    37    38   ar
    74    38    39   ar
    75    38    41    1
    76    39    40   ar
    77    39    81    1
    78    40    82    1
    79    41    42   ar
    80    41    46   ar
    81    42    43   ar
    82    42    83    1
    83    43    44   ar
    84    43    47    1
    85    44    45   ar
    86    44    84    1
    87    45    46   ar
    88    45    85    1
    89    46    86    1
    90    47    48    2
    91    47    49   am
    92    49    87    1
    93    49    88    1
    94    50    89    1
    95    50    90    1
    96    50    91    1
    97    51    92    1
    98    51    93    1
    99    51    94    1
@<TRIPOS>SUBSTRUCTURE
     1 UNL         1 TEMP              0 ****  ****    0 ROOT


##########                                Name:    ZINC001591898574
##########                DOCK_Rotatable_Bonds:                  10
##########                         Heavy_Atoms:                  26
##########                    Molecular_Weight:             383.434
##########                DOCK_Rotatable_Bonds:                  10
##########                       Formal_Charge:         5.96046e-08
##########                     HBond_Acceptors:                  13
##########                        HBond_Donors:                   3
##########                         Heavy_Atoms:                  26
##########                          Grid_Score:          -39.909916
##########                     Grid_vdw_energy:          -36.898491
##########                      Grid_es_energy:           -3.011425
##########           Internal_energy_repulsive:            8.169058

@<TRIPOS>MOLECULE
ZINC001591898574
 47 48 1 0 0
SMALL
USER_CHARGES


@<TRIPOS>ATOM
      1 C1        -13.2077   -3.2188   57.8222 C.3     1  ZINC001591898574   -0.1100
      2 C2        -11.9039   -2.7706   57.2135 C.ar    1  ZINC001591898574    0.2300
      3 C3        -10.7067   -3.0264   57.8583 C.ar    1  ZINC001591898574   -0.2400
      4 C4         -9.5219   -2.5935   57.2581 C.ar    1  ZINC001591898574    0.3000
      5 C5         -8.2122   -2.8439   57.9096 C.2     1  ZINC001591898574    0.2100
      6 N6         -7.4270   -1.9455   58.4702 N.2     1  ZINC001591898574   -0.2500
      7 N7         -6.3867   -2.5578   58.9216 N.pl3   1  ZINC001591898574   -0.2200
      8 N8         -6.4877   -3.8152   58.6650 N.2     1  ZINC001591898574   -0.0400
      9 N9         -7.6001   -4.0287   58.0478 N.2     1  ZINC001591898574   -0.2500
     10 N10        -9.5853   -1.9535   56.0932 N.ar    1  ZINC001591898574   -0.5500
     11 C11       -10.7524   -1.7293   55.5098 C.ar    1  ZINC001591898574    0.5800
     12 N12       -10.7832   -1.0608   54.2982 N.pl3   1  ZINC001591898574   -0.7000
     13 C13       -10.1027    0.2287   54.1556 C.3     1  ZINC001591898574    0.1400
     14 C14        -8.9613    0.0940   53.1456 C.3     1  ZINC001591898574   -0.1500
     15 C15        -7.9534    1.2248   53.3613 C.3     1  ZINC001591898574    0.1200
     16 N16        -7.0363    1.2856   52.2205 N.am    1  ZINC001591898574   -0.7300
     17 C17        -7.3165    2.0855   51.1726 C.2     1  ZINC001591898574    0.4900
     18 O18        -8.3271    2.7561   51.1747 O.2     1  ZINC001591898574   -0.5300
     19 C19        -6.3740    2.1467   49.9982 C.3     1  ZINC001591898574    0.1000
     20 N20        -5.3853    3.2048   50.2203 N.am    1  ZINC001591898574   -0.9800
     21 C21        -5.7836    4.4544   50.8729 C.3     1  ZINC001591898574    0.1000
     22 S22        -3.8173    2.9882   49.7334 S.o2    1  ZINC001591898574    2.6100
     23 C23        -3.2550    1.5297   50.6538 C.3     1  ZINC001591898574   -0.6600
     24 O24        -3.9183    2.6945   48.3468 O.2     1  ZINC001591898574   -0.9500
     25 O25        -3.1449    4.1546   50.1881 O.2     1  ZINC001591898574   -0.9600
     26 N26       -11.8913   -2.1330   56.0537 N.ar    1  ZINC001591898574   -0.5600
     27 H27       -13.4435   -4.2251   57.4758 H       1  ZINC001591898574    0.0900
     28 H28       -13.1202   -3.2197   58.9086 H       1  ZINC001591898574    0.0900
     29 H29       -14.0025   -2.5358   57.5221 H       1  ZINC001591898574    0.0900
     30 H30       -10.6888   -3.5481   58.8037 H       1  ZINC001591898574    0.1600
     31 H31        -5.6440   -2.1371   59.3824 H       1  ZINC001591898574    0.4800
     32 H32       -11.2554   -1.4461   53.5436 H       1  ZINC001591898574    0.4200
     33 H33       -10.8127    0.9772   53.8038 H       1  ZINC001591898574    0.0700
     34 H34        -9.6996    0.5355   55.1207 H       1  ZINC001591898574    0.0700
     35 H35        -8.4649   -0.8665   53.2842 H       1  ZINC001591898574    0.0800
     36 H36        -9.3625    0.1531   52.1339 H       1  ZINC001591898574    0.0800
     37 H37        -8.4843    2.1724   53.4516 H       1  ZINC001591898574    0.0700
     38 H38        -7.3867    1.0373   54.2734 H       1  ZINC001591898574    0.0700
     39 H39        -6.2275    0.7502   52.2193 H       1  ZINC001591898574    0.4000
     40 H40        -5.8638    1.1895   49.8915 H       1  ZINC001591898574    0.1200
     41 H41        -6.9379    2.3611   49.0905 H       1  ZINC001591898574    0.1300
     42 H42        -5.6541    4.3586   51.9510 H       1  ZINC001591898574    0.0600
     43 H43        -5.1634    5.2710   50.5036 H       1  ZINC001591898574    0.0700
     44 H44        -6.8299    4.6633   50.6499 H       1  ZINC001591898574    0.0700
     45 H45        -3.8819    0.6753   50.3988 H       1  ZINC001591898574    0.1300
     46 H46        -2.2196    1.3117   50.3917 H       1  ZINC001591898574    0.1200
     47 H47        -3.3254    1.7257   51.7237 H       1  ZINC001591898574    0.1300
@<TRIPOS>BOND
     1     1     2    1
     2     1    27    1
     3     1    28    1
     4     1    29    1
     5     2    26   ar
     6     2     3   ar
     7     3     4   ar
     8     3    30    1
     9     4     5    1
    10     4    10   ar
    11     5     9    1
    12     5     6    2
    13     6     7    1
    14     7     8    1
    15     7    31    1
    16     8     9    2
    17    10    11   ar
    18    11    12    1
    19    11    26   ar
    20    12    13    1
    21    12    32    1
    22    13    14    1
    23    13    33    1
    24    13    34    1
    25    14    15    1
    26    14    35    1
    27    14    36    1
    28    15    16    1
    29    15    37    1
    30    15    38    1
    31    16    17   am
    32    16    39    1
    33    17    18    2
    34    17    19    1
    35    19    20    1
    36    19    40    1
    37    19    41    1
    38    20    21    1
    39    20    22   am
    40    21    42    1
    41    21    43    1
    42    21    44    1
    43    22    23    1
    44    22    24    2
    45    22    25    2
    46    23    45    1
    47    23    46    1
    48    23    47    1
@<TRIPOS>SUBSTRUCTURE
     1 ZINC001591898574        1 TEMP              0 ****  ****    0 ROOT


##########                                Name:     oleObject42.pdb
##########                DOCK_Rotatable_Bonds:                   9
##########                         Heavy_Atoms:                  36
##########                    Molecular_Weight:             527.493
##########                DOCK_Rotatable_Bonds:                   9
##########                       Formal_Charge:         9.99384e-05
##########                     HBond_Acceptors:                   8
##########                        HBond_Donors:                   0
##########                         Heavy_Atoms:                  36
##########                          Grid_Score:          -39.378929
##########                     Grid_vdw_energy:          -39.311485
##########                      Grid_es_energy:           -0.067444
##########           Internal_energy_repulsive:           23.626347

@<TRIPOS>MOLECULE
oleObject42.pdb
 68 71 1 0 0
SMALL
NO_CHARGES


@<TRIPOS>ATOM
      1 C          -2.9004    2.7326   49.2348 C.ar    1  UNL        -0.0435
      2 C          -2.8747    2.6668   50.6354 C.ar    1  UNL        -0.0559
      3 C          -4.0904    2.6652   51.3450 C.ar    1  UNL        -0.0272
      4 C          -5.3005    2.7313   50.6093 C.ar    1  UNL         0.0699
      5 N          -5.3109    2.7945   49.2573 N.ar    1  UNL        -0.2586
      6 C          -4.1432    2.7949   48.5876 C.ar    1  UNL         0.0272
      7 C          -6.6712    2.7324   51.3075 C.3     1  UNL         0.1101
      8 C          -7.6895    3.6827   50.6480 C.ar    1  UNL         0.0699
      9 C          -7.6654    5.0781   50.8978 C.ar    1  UNL        -0.0272
     10 C          -8.6312    5.8882   50.2713 C.ar    1  UNL        -0.0559
     11 C          -9.5800    5.2928   49.4277 C.ar    1  UNL        -0.0435
     12 C          -9.5334    3.9039   49.2390 C.ar    1  UNL         0.0272
     13 N          -8.6147    3.1209   49.8346 N.ar    1  UNL        -0.2586
     14 C          -6.6326    5.7219   51.8165 C.3     1  UNL        -0.0379
     15 N          -7.1891    1.3595   51.5630 N.am    1  UNL        -0.2902
     16 C          -7.9850    1.0413   52.6642 C.2     1  UNL         0.2180
     17 O          -8.5963   -0.0141   52.6968 O.2     1  UNL        -0.2772
     18 C          -8.3260    2.1905   53.6442 C.3     1  UNL         0.0385
     19 C          -7.2665    2.3069   54.7664 C.3     1  UNL        -0.0289
     20 C          -7.4017    1.1839   55.8169 C.3     1  UNL        -0.0010
     21 N          -8.7659    1.1367   56.3862 N.4     1  UNL        -0.3010
     22 C          -9.8342    0.9850   55.3736 C.3     1  UNL        -0.0010
     23 C          -9.7431    2.0572   54.2613 C.3     1  UNL        -0.0289
     24 C          -8.9027    0.2285   57.5465 C.3     1  UNL         0.0222
     25 C          -8.3510   -1.1936   57.3007 C.3     1  UNL         0.0661
     26 O          -8.7339   -2.0132   58.4162 O.3     1  UNL        -0.3432
     27 C         -10.0501   -2.3807   58.5506 C.ar    1  UNL         0.0937
     28 C         -10.6294   -3.2124   57.5776 C.ar    1  UNL        -0.0288
     29 C         -11.9749   -3.5990   57.6933 C.ar    1  UNL        -0.0408
     30 C         -12.7413   -3.1500   58.7818 C.ar    1  UNL         0.0422
     31 C         -12.1665   -2.3140   59.7537 C.ar    1  UNL        -0.0221
     32 C         -10.8207   -1.9264   59.6398 C.ar    1  UNL         0.0723
     33 CL        -10.1283   -0.8780   60.8636 Cl      1  UNL        -0.0814
     34 CL        -14.4183   -3.6313   58.9262 Cl      1  UNL        -0.0843
     35 C          -6.6851    0.2908   50.6772 C.3     1  UNL         0.0038
     36 C          -4.0656    2.5901   52.8678 C.3     1  UNL        -0.0379
     37 H          -1.9775    2.7341   48.6623 H       1  UNL         0.0639
     38 H          -1.9245    2.6163   51.1596 H       1  UNL         0.0627
     39 H          -4.2074    2.8459   47.5014 H       1  UNL         0.0840
     40 H          -6.4853    3.1601   52.2961 H       1  UNL         0.0643
     41 H          -8.6468    6.9622   50.4340 H       1  UNL         0.0627
     42 H         -10.3355    5.8939   48.9306 H       1  UNL         0.0639
     43 H         -10.2518    3.4019   48.5922 H       1  UNL         0.0840
     44 H          -6.7413    5.3620   52.8471 H       1  UNL         0.0280
     45 H          -6.7376    6.8138   51.8389 H       1  UNL         0.0280
     46 H          -5.6112    5.5011   51.4831 H       1  UNL         0.0280
     47 H          -8.3279    3.1325   53.0864 H       1  UNL         0.0402
     48 H          -7.3853    3.2749   55.2702 H       1  UNL         0.0288
     49 H          -6.2558    2.2956   54.3417 H       1  UNL         0.0288
     50 H          -6.6703    1.3597   56.6162 H       1  UNL         0.0431
     51 H          -7.1564    0.2240   55.3448 H       1  UNL         0.0431
     52 H         -10.8166    1.0645   55.8564 H       1  UNL         0.0431
     53 H          -9.7765   -0.0096   54.9161 H       1  UNL         0.0431
     54 H         -10.0261    3.0250   54.6954 H       1  UNL         0.0288
     55 H         -10.4771    1.8425   53.4740 H       1  UNL         0.0288
     56 H          -9.9621    0.1492   57.8219 H       1  UNL         0.0455
     57 H          -8.3775    0.6615   58.4076 H       1  UNL         0.0455
     58 H          -7.2578   -1.1642   57.2155 H       1  UNL         0.0586
     59 H          -8.7645   -1.6064   56.3724 H       1  UNL         0.0586
     60 H         -10.0350   -3.5566   56.7361 H       1  UNL         0.0652
     61 H         -12.4212   -4.2434   56.9411 H       1  UNL         0.0639
     62 H         -12.7628   -1.9663   60.5925 H       1  UNL         0.0655
     63 H          -6.4785    0.6858   49.6747 H       1  UNL         0.0433
     64 H          -7.4347   -0.5054   50.5864 H       1  UNL         0.0433
     65 H          -5.7630   -0.1314   51.0958 H       1  UNL         0.0433
     66 H          -3.0411    2.5051   53.2510 H       1  UNL         0.0280
     67 H          -4.6209    1.7174   53.2321 H       1  UNL         0.0280
     68 H          -4.5072    3.4887   53.3152 H       1  UNL         0.0280
@<TRIPOS>BOND
     1     1     2   ar
     2     1     6   ar
     3     1    37    1
     4     2     3   ar
     5     2    38    1
     6     3     4   ar
     7     3    36    1
     8     4     5   ar
     9     4     7    1
    10     5     6   ar
    11     6    39    1
    12     7     8    1
    13     7    15    1
    14     7    40    1
    15     8     9   ar
    16     8    13   ar
    17     9    10   ar
    18     9    14    1
    19    10    11   ar
    20    10    41    1
    21    11    12   ar
    22    11    42    1
    23    12    13   ar
    24    12    43    1
    25    14    44    1
    26    14    45    1
    27    14    46    1
    28    15    16   am
    29    15    35    1
    30    16    17    2
    31    16    18    1
    32    18    19    1
    33    18    23    1
    34    18    47    1
    35    19    20    1
    36    19    48    1
    37    19    49    1
    38    20    21    1
    39    20    50    1
    40    20    51    1
    41    21    22    1
    42    21    24    1
    43    22    23    1
    44    22    52    1
    45    22    53    1
    46    23    54    1
    47    23    55    1
    48    24    25    1
    49    24    56    1
    50    24    57    1
    51    25    26    1
    52    25    58    1
    53    25    59    1
    54    26    27    1
    55    27    28   ar
    56    27    32   ar
    57    28    29   ar
    58    28    60    1
    59    29    30   ar
    60    29    61    1
    61    30    31   ar
    62    30    34    1
    63    31    32   ar
    64    31    62    1
    65    32    33    1
    66    35    63    1
    67    35    64    1
    68    35    65    1
    69    36    66    1
    70    36    67    1
    71    36    68    1
@<TRIPOS>SUBSTRUCTURE
     1 UNL         1 TEMP              0 ****  ****    0 ROOT


##########                                Name:    ZINC000058174787
##########                DOCK_Rotatable_Bonds:                   9
##########                         Heavy_Atoms:                  27
##########                    Molecular_Weight:             413.882
##########                DOCK_Rotatable_Bonds:                   9
##########                       Formal_Charge:           0.0200002
##########                     HBond_Acceptors:                  10
##########                        HBond_Donors:                   1
##########                         Heavy_Atoms:                  27
##########                          Grid_Score:          -39.197021
##########                     Grid_vdw_energy:          -33.925919
##########                      Grid_es_energy:           -5.271105
##########           Internal_energy_repulsive:            4.887157

@<TRIPOS>MOLECULE
ZINC000058174787
 47 48 1 0 0
SMALL
USER_CHARGES


@<TRIPOS>ATOM
      1 C1         -2.8020    1.6544   65.8307 C.3     1  ZINC000058174787   -0.0700
      2 C2         -4.3032    1.7569   65.7457 C.2     1  ZINC000058174787    0.2100
      3 N3         -5.1429    0.7704   65.9028 N.2     1  ZINC000058174787   -0.4200
      4 C4         -6.3953    1.2286   65.7592 C.2     1  ZINC000058174787   -0.5600
      5 S5         -7.8689    0.2706   65.8834 S.o2    1  ZINC000058174787    2.7400
      6 O6         -7.5024   -0.9497   66.5126 O.2     1  ZINC000058174787   -0.9500
      7 O7         -8.8702    1.1390   66.3955 O.2     1  ZINC000058174787   -0.9600
      8 N8         -8.3317   -0.1190   64.3417 N.am    1  ZINC000058174787   -1.1100
      9 C9         -8.6372    0.9417   63.3786 C.3     1  ZINC000058174787    0.1300
     10 C10        -9.3847    0.3459   62.1839 C.3     1  ZINC000058174787   -0.1200
     11 C11        -9.5718    1.4057   61.1291 C.2     1  ZINC000058174787    0.4700
     12 O12        -9.9357    2.5140   61.4440 O.2     1  ZINC000058174787   -0.5000
     13 O13        -9.3340    1.1186   59.8395 O.3     1  ZINC000058174787   -0.3300
     14 C14        -7.9626    1.2419   59.3787 C.3     1  ZINC000058174787    0.0400
     15 H15        -7.2844    0.9024   60.1615 H       1  ZINC000058174787    0.1200
     16 C16        -7.6659    2.7055   59.0463 C.3     1  ZINC000058174787   -0.1700
     17 C17        -7.7692    0.3974   58.1456 C.2     1  ZINC000058174787    0.4000
     18 O18        -7.4987    0.9233   57.0869 O.2     1  ZINC000058174787   -0.4200
     19 C19        -7.9084   -1.0647   58.2262 C.ar    1  ZINC000058174787   -0.1600
     20 C20        -6.8435   -1.8478   58.6842 C.ar    1  ZINC000058174787   -0.0600
     21 C21        -6.9812   -3.2171   58.7574 C.ar    1  ZINC000058174787   -0.1200
     22 C22        -8.1709   -3.8184   58.3789 C.ar    1  ZINC000058174787    0.0000
     23 Cl23       -8.3356   -5.5438   58.4752 Cl      1  ZINC000058174787   -0.0500
     24 C24        -9.2299   -3.0490   57.9243 C.ar    1  ZINC000058174787   -0.1200
     25 C25        -9.1083   -1.6782   57.8507 C.ar    1  ZINC000058174787   -0.0400
     26 C26        -6.3291    2.5491   65.5035 C.2     1  ZINC000058174787    0.0700
     27 N27        -5.0024    2.8858   65.5001 N.pl3   1  ZINC000058174787   -0.4500
     28 C28        -4.4447    4.2200   65.2653 C.3     1  ZINC000058174787    0.0600
     29 H29        -2.4841    1.8219   66.8598 H       1  ZINC000058174787    0.0900
     30 H30        -2.4868    0.6615   65.5101 H       1  ZINC000058174787    0.1000
     31 H31        -2.3493    2.4059   65.1838 H       1  ZINC000058174787    0.0800
     32 H32        -8.4005   -1.0495   64.0765 H       1  ZINC000058174787    0.4200
     33 H33        -9.2599    1.6981   63.8563 H       1  ZINC000058174787    0.0900
     34 H34        -7.7092    1.3989   63.0350 H       1  ZINC000058174787    0.0900
     35 H35        -8.8078   -0.4810   61.7699 H       1  ZINC000058174787    0.1200
     36 H36       -10.3591   -0.0182   62.5098 H       1  ZINC000058174787    0.1200
     37 H37        -8.3442    3.0449   58.2634 H       1  ZINC000058174787    0.0800
     38 H38        -7.8058    3.3163   59.9382 H       1  ZINC000058174787    0.0800
     39 H39        -6.6364    2.7981   58.7004 H       1  ZINC000058174787    0.0800
     40 H40        -5.9156   -1.3806   58.9791 H       1  ZINC000058174787    0.1400
     41 H41        -6.1599   -3.8230   59.1105 H       1  ZINC000058174787    0.1400
     42 H42       -10.1542   -3.5244   57.6309 H       1  ZINC000058174787    0.1400
     43 H43        -9.9346   -1.0797   57.4965 H       1  ZINC000058174787    0.1500
     44 H44        -7.1629    3.2152   65.3372 H       1  ZINC000058174787    0.1900
     45 H45        -4.3542    4.7481   66.2146 H       1  ZINC000058174787    0.0900
     46 H46        -3.4606    4.1268   64.8062 H       1  ZINC000058174787    0.1000
     47 H47        -5.1044    4.7777   64.6007 H       1  ZINC000058174787    0.0900
@<TRIPOS>BOND
     1     1     2    1
     2     1    29    1
     3     1    30    1
     4     1    31    1
     5     2    27    1
     6     2     3    2
     7     3     4    1
     8     4     5    1
     9     4    26    2
    10     5     6    2
    11     5     7    2
    12     5     8   am
    13     8     9    1
    14     8    32    1
    15     9    10    1
    16     9    33    1
    17     9    34    1
    18    10    11    1
    19    10    35    1
    20    10    36    1
    21    11    12    2
    22    11    13    1
    23    13    14    1
    24    14    15    1
    25    14    16    1
    26    14    17    1
    27    16    37    1
    28    16    38    1
    29    16    39    1
    30    17    18    2
    31    17    19    1
    32    19    25   ar
    33    19    20   ar
    34    20    21   ar
    35    20    40    1
    36    21    22   ar
    37    21    41    1
    38    22    23    1
    39    22    24   ar
    40    24    25   ar
    41    24    42    1
    42    25    43    1
    43    26    27    1
    44    26    44    1
    45    27    28    1
    46    28    45    1
    47    28    46    1
    48    28    47    1
@<TRIPOS>SUBSTRUCTURE
     1 ZINC000058174787        1 TEMP              0 ****  ****    0 ROOT


##########                                Name:    ZINC000912668252
##########                DOCK_Rotatable_Bonds:                  10
##########                         Heavy_Atoms:                  30
##########                    Molecular_Weight:             411.433
##########                DOCK_Rotatable_Bonds:                  10
##########                       Formal_Charge:           0.0199993
##########                     HBond_Acceptors:                   8
##########                        HBond_Donors:                   2
##########                         Heavy_Atoms:                  30
##########                          Grid_Score:          -38.644592
##########                     Grid_vdw_energy:          -36.190327
##########                      Grid_es_energy:           -2.454264
##########           Internal_energy_repulsive:           16.188250

@<TRIPOS>MOLECULE
ZINC000912668252
 52 54 1 0 0
SMALL
USER_CHARGES


@<TRIPOS>ATOM
      1 C1         -9.6059    0.9486   58.8789 C.3     1  ZINC000912668252   -0.1700
      2 C2         -9.4066    0.4480   57.4470 C.3     1  ZINC000912668252    0.1100
      3 N3         -9.2010   -1.0024   57.4610 N.am    1  ZINC000912668252   -0.6100
      4 C4         -8.6468   -1.6523   58.6512 C.3     1  ZINC000912668252    0.1000
      5 C5         -7.1302   -1.4522   58.6821 C.3     1  ZINC000912668252   -0.1800
      6 C6         -9.5217   -1.7389   56.3787 C.2     1  ZINC000912668252    0.5600
      7 O7         -9.3510   -2.9423   56.3903 O.2     1  ZINC000912668252   -0.5300
      8 C8        -10.0810   -1.0830   55.1774 C.ar    1  ZINC000912668252   -0.1100
      9 C9        -11.4311   -1.2384   54.8593 C.ar    1  ZINC000912668252   -0.1100
     10 C10       -11.9508   -0.6247   53.7376 C.ar    1  ZINC000912668252   -0.1000
     11 C11       -11.1385    0.1450   52.9263 C.ar    1  ZINC000912668252   -0.1200
     12 C12        -9.7928    0.3060   53.2345 C.ar    1  ZINC000912668252    0.1400
     13 N13        -8.9746    1.0866   52.4099 N.am    1  ZINC000912668252   -0.6700
     14 C14        -8.0704    0.4957   51.6038 C.2     1  ZINC000912668252    0.5200
     15 O15        -7.9658   -0.7126   51.5930 O.2     1  ZINC000912668252   -0.4900
     16 C16        -7.1895    1.3363   50.7159 C.3     1  ZINC000912668252    0.0500
     17 O17        -6.5153    2.3429   51.5164 O.3     1  ZINC000912668252   -0.3300
     18 C18        -5.2356    2.0945   51.8613 C.2     1  ZINC000912668252    0.5400
     19 O19        -4.9239    2.0298   53.0347 O.2     1  ZINC000912668252   -0.4800
     20 C20        -4.2182    1.9021   50.8194 C.2     1  ZINC000912668252    0.0400
     21 C21        -4.3188    2.3259   49.5315 C.2     1  ZINC000912668252   -0.0900
     22 C22        -3.1334    1.9449   48.8583 C.ar    1  ZINC000912668252   -0.1000
     23 C23        -2.6803    2.1070   47.5425 C.ar    1  ZINC000912668252   -0.0900
     24 C24        -1.4574    1.6168   47.1798 C.ar    1  ZINC000912668252    0.0700
     25 F25        -1.0225    1.7742   45.9104 F       1  ZINC000912668252   -0.1400
     26 C26        -0.6565    0.9578   48.1064 C.ar    1  ZINC000912668252   -0.1100
     27 C27        -1.0814    0.7865   49.4050 C.ar    1  ZINC000912668252   -0.1000
     28 C28        -2.3233    1.2771   49.7978 C.ar    1  ZINC000912668252    0.1100
     29 N29        -3.0036    1.2666   50.9933 N.pl3   1  ZINC000912668252   -0.5600
     30 C30        -9.2624   -0.3019   54.3615 C.ar    1  ZINC000912668252   -0.0700
     31 H31        -9.7590    2.0278   58.8686 H       1  ZINC000912668252    0.0700
     32 H32       -10.4781    0.4622   59.3158 H       1  ZINC000912668252    0.0600
     33 H33        -8.7228    0.7126   59.4727 H       1  ZINC000912668252    0.0600
     34 H34       -10.2898    0.6841   56.8533 H       1  ZINC000912668252    0.0800
     35 H35        -8.5345    0.9345   57.0101 H       1  ZINC000912668252    0.0900
     36 H36        -9.0896   -1.2124   59.5448 H       1  ZINC000912668252    0.0900
     37 H37        -8.8721   -2.7184   58.6212 H       1  ZINC000912668252    0.0800
     38 H38        -6.6535   -2.1876   58.0340 H       1  ZINC000912668252    0.0600
     39 H39        -6.8889   -0.4486   58.3319 H       1  ZINC000912668252    0.0700
     40 H40        -6.7678   -1.5780   59.7024 H       1  ZINC000912668252    0.0700
     41 H41       -12.0690   -1.8392   55.4905 H       1  ZINC000912668252    0.1400
     42 H42       -12.9956   -0.7465   53.4928 H       1  ZINC000912668252    0.1400
     43 H43       -11.5508    0.6225   52.0497 H       1  ZINC000912668252    0.1300
     44 H44        -9.0583    2.0530   52.4185 H       1  ZINC000912668252    0.4200
     45 H45        -6.4481    0.7000   50.2325 H       1  ZINC000912668252    0.1100
     46 H46        -7.7997    1.8249   49.9563 H       1  ZINC000912668252    0.1100
     47 H47        -5.1537    2.8575   49.0994 H       1  ZINC000912668252    0.1700
     48 H48        -3.2960    2.6175   46.8167 H       1  ZINC000912668252    0.1400
     49 H49         0.3077    0.5763   47.8045 H       1  ZINC000912668252    0.1400
     50 H50        -0.4526    0.2727   50.1170 H       1  ZINC000912668252    0.1400
     51 H51        -2.6840    0.8759   51.8217 H       1  ZINC000912668252    0.4300
     52 H52        -8.2170   -0.1779   54.6027 H       1  ZINC000912668252    0.1400
@<TRIPOS>BOND
     1     1     2    1
     2     1    31    1
     3     1    32    1
     4     1    33    1
     5     2     3    1
     6     2    34    1
     7     2    35    1
     8     3     4    1
     9     3     6   am
    10     4     5    1
    11     4    36    1
    12     4    37    1
    13     5    38    1
    14     5    39    1
    15     5    40    1
    16     6     7    2
    17     6     8    1
    18     8    30   ar
    19     8     9   ar
    20     9    10   ar
    21     9    41    1
    22    10    11   ar
    23    10    42    1
    24    11    12   ar
    25    11    43    1
    26    12    13    1
    27    12    30   ar
    28    13    14   am
    29    13    44    1
    30    14    15    2
    31    14    16    1
    32    16    17    1
    33    16    45    1
    34    16    46    1
    35    17    18    1
    36    18    19    2
    37    18    20    1
    38    20    29    1
    39    20    21    2
    40    21    22    1
    41    21    47    1
    42    22    28   ar
    43    22    23   ar
    44    23    24   ar
    45    23    48    1
    46    24    25    1
    47    24    26   ar
    48    26    27   ar
    49    26    49    1
    50    27    28   ar
    51    27    50    1
    52    28    29    1
    53    29    51    1
    54    30    52    1
@<TRIPOS>SUBSTRUCTURE
     1 ZINC000912668252        1 TEMP              0 ****  ****    0 ROOT


##########                                Name:    ZINC000603906271
##########                DOCK_Rotatable_Bonds:                   8
##########                         Heavy_Atoms:                  29
##########                    Molecular_Weight:             391.473
##########                DOCK_Rotatable_Bonds:                   8
##########                       Formal_Charge:           0.0499998
##########                     HBond_Acceptors:                   7
##########                        HBond_Donors:                   3
##########                         Heavy_Atoms:                  29
##########                          Grid_Score:          -37.913311
##########                     Grid_vdw_energy:          -35.336903
##########                      Grid_es_energy:           -2.576408
##########           Internal_energy_repulsive:           19.152712

@<TRIPOS>MOLECULE
ZINC000603906271
 54 56 1 0 0
SMALL
USER_CHARGES


@<TRIPOS>ATOM
      1 C1         -8.7722    3.2517   53.6916 C.3     1  ZINC000603906271   -0.1600
      2 C2         -8.6682    2.0287   52.7782 C.3     1  ZINC000603906271    0.1300
      3 H3         -9.3825    2.1241   51.9604 H       1  ZINC000603906271    0.1200
      4 N4         -7.3111    1.9401   52.2334 N.am    1  ZINC000603906271   -0.7100
      5 C5         -7.0970    2.1531   50.9199 C.2     1  ZINC000603906271    0.5700
      6 O6         -8.0301    2.4171   50.1870 O.2     1  ZINC000603906271   -0.5300
      7 C7         -5.7273    2.0654   50.3704 C.ar    1  ZINC000603906271   -0.1400
      8 C8         -4.7324    1.3842   51.0734 C.ar    1  ZINC000603906271   -0.0800
      9 C9         -3.4564    1.3057   50.5549 C.ar    1  ZINC000603906271   -0.1200
     10 C10        -3.1618    1.9009   49.3410 C.ar    1  ZINC000603906271   -0.0400
     11 C11        -1.7656    1.8115   48.7810 C.3     1  ZINC000603906271   -0.0400
     12 C12        -1.1684    3.2160   48.6736 C.3     1  ZINC000603906271   -0.1400
     13 C13        -0.8980    0.9578   49.7081 C.3     1  ZINC000603906271   -0.1500
     14 C14        -1.8129    1.1699   47.3928 C.3     1  ZINC000603906271   -0.1400
     15 C15        -4.1436    2.5773   48.6389 C.ar    1  ZINC000603906271   -0.1300
     16 C16        -5.4249    2.6586   49.1438 C.ar    1  ZINC000603906271   -0.0500
     17 C17        -8.9741    0.7833   53.5696 C.2     1  ZINC000603906271    0.5100
     18 O18        -8.5413   -0.2892   53.2040 O.2     1  ZINC000603906271   -0.5100
     19 N19        -9.7288    0.8610   54.6835 N.am    1  ZINC000603906271   -0.6700
     20 C20       -10.0128   -0.2956   55.4183 C.ar    1  ZINC000603906271    0.1300
     21 C21       -11.2878   -0.8463   55.3818 C.ar    1  ZINC000603906271   -0.1200
     22 C22       -11.5720   -1.9886   56.1063 C.ar    1  ZINC000603906271   -0.1000
     23 C23       -10.5912   -2.5882   56.8704 C.ar    1  ZINC000603906271   -0.0900
     24 C24        -9.3094   -2.0422   56.9132 C.ar    1  ZINC000603906271    0.0000
     25 C25        -8.2538   -2.6854   57.7346 C.2     1  ZINC000603906271    0.2700
     26 N26        -7.4072   -2.0590   58.5220 N.2     1  ZINC000603906271   -0.3000
     27 N27        -6.5910   -3.0435   59.1022 N.pl3   1  ZINC000603906271   -0.4800
     28 C28        -7.0107   -4.2246   58.6138 C.2     1  ZINC000603906271    0.2700
     29 N29        -8.0093   -4.0010   57.8011 N.2     1  ZINC000603906271   -0.5300
     30 C30        -9.0203   -0.8957   56.1787 C.ar    1  ZINC000603906271   -0.0800
     31 H31        -8.0580    3.1563   54.5094 H       1  ZINC000603906271    0.0700
     32 H32        -8.5510    4.1526   53.1192 H       1  ZINC000603906271    0.0800
     33 H33        -9.7819    3.3176   54.0969 H       1  ZINC000603906271    0.0700
     34 H34        -6.5667    1.7282   52.8180 H       1  ZINC000603906271    0.4100
     35 H35        -4.9608    0.9198   52.0213 H       1  ZINC000603906271    0.1300
     36 H36        -2.6856    0.7789   51.0978 H       1  ZINC000603906271    0.1300
     37 H37        -1.1346    3.6730   49.6626 H       1  ZINC000603906271    0.0600
     38 H38        -0.1584    3.1514   48.2686 H       1  ZINC000603906271    0.0600
     39 H39        -1.7864    3.8241   48.0131 H       1  ZINC000603906271    0.0600
     40 H40        -1.3235   -0.0428   49.7846 H       1  ZINC000603906271    0.0600
     41 H41         0.1119    0.8932   49.3030 H       1  ZINC000603906271    0.0600
     42 H42        -0.8643    1.4149   50.6970 H       1  ZINC000603906271    0.0600
     43 H43        -2.4311    1.7781   46.7324 H       1  ZINC000603906271    0.0600
     44 H44        -0.8031    1.1053   46.9878 H       1  ZINC000603906271    0.0600
     45 H45        -2.2385    0.1693   47.4693 H       1  ZINC000603906271    0.0600
     46 H46        -3.9072    3.0394   47.6918 H       1  ZINC000603906271    0.1400
     47 H47        -6.1904    3.1866   48.5945 H       1  ZINC000603906271    0.1400
     48 H48       -10.0749    1.7186   54.9759 H       1  ZINC000603906271    0.4200
     49 H49       -12.0588   -0.3805   54.7861 H       1  ZINC000603906271    0.1300
     50 H50       -12.5647   -2.4130   56.0748 H       1  ZINC000603906271    0.1400
     51 H51       -10.8170   -3.4804   57.4355 H       1  ZINC000603906271    0.1400
     52 H52        -5.8668   -2.9000   59.7313 H       1  ZINC000603906271    0.4400
     53 H53        -6.5964   -5.1923   58.8556 H       1  ZINC000603906271    0.2300
     54 H54        -8.0287   -0.4690   56.2087 H       1  ZINC000603906271    0.1500
@<TRIPOS>BOND
     1     1     2    1
     2     1    31    1
     3     1    32    1
     4     1    33    1
     5     2     3    1
     6     2     4    1
     7     2    17    1
     8     4     5   am
     9     4    34    1
    10     5     6    2
    11     5     7    1
    12     7    16   ar
    13     7     8   ar
    14     8     9   ar
    15     8    35    1
    16     9    10   ar
    17     9    36    1
    18    10    11    1
    19    10    15   ar
    20    11    12    1
    21    11    13    1
    22    11    14    1
    23    12    37    1
    24    12    38    1
    25    12    39    1
    26    13    40    1
    27    13    41    1
    28    13    42    1
    29    14    43    1
    30    14    44    1
    31    14    45    1
    32    15    16   ar
    33    15    46    1
    34    16    47    1
    35    17    18    2
    36    17    19   am
    37    19    20    1
    38    19    48    1
    39    20    30   ar
    40    20    21   ar
    41    21    22   ar
    42    21    49    1
    43    22    23   ar
    44    22    50    1
    45    23    24   ar
    46    23    51    1
    47    24    25    1
    48    24    30   ar
    49    25    29    1
    50    25    26    2
    51    26    27    1
    52    27    28    1
    53    27    52    1
    54    28    29    2
    55    28    53    1
    56    30    54    1
@<TRIPOS>SUBSTRUCTURE
     1 ZINC000603906271        1 TEMP              0 ****  ****    0 ROOT


##########                                Name:    ZINC000428266315
##########                DOCK_Rotatable_Bonds:                  10
##########                         Heavy_Atoms:                  30
##########                    Molecular_Weight:             423.438
##########                DOCK_Rotatable_Bonds:                  10
##########                       Formal_Charge:          0.00999977
##########                     HBond_Acceptors:                  10
##########                        HBond_Donors:                   0
##########                         Heavy_Atoms:                  30
##########                          Grid_Score:          -37.139465
##########                     Grid_vdw_energy:          -36.040676
##########                      Grid_es_energy:           -1.098790
##########           Internal_energy_repulsive:           10.463276

@<TRIPOS>MOLECULE
ZINC000428266315
 54 56 1 0 0
SMALL
USER_CHARGES


@<TRIPOS>ATOM
      1 C1         -6.8338   -4.3976   58.7310 C.3     1  ZINC000428266315   -0.1500
      2 C2         -7.9548   -3.8665   57.8353 C.3     1  ZINC000428266315    0.0600
      3 O3         -7.6755   -2.5121   57.4753 O.3     1  ZINC000428266315   -0.3700
      4 C4         -8.3376   -1.5450   58.2928 C.3     1  ZINC000428266315    0.1800
      5 H5         -9.1269   -2.0323   58.8651 H       1  ZINC000428266315    0.0900
      6 C6         -7.3283   -0.9118   59.2527 C.3     1  ZINC000428266315   -0.1700
      7 C7         -8.9386   -0.4749   57.4183 C.2     1  ZINC000428266315    0.1700
      8 N8        -10.1548   -0.0221   57.4830 N.2     1  ZINC000428266315   -0.3500
      9 O9        -10.3286    0.8360   56.6436 O.3     1  ZINC000428266315    0.0800
     10 C10        -9.2056    1.0177   55.9423 C.2     1  ZINC000428266315    0.1900
     11 C11        -9.0022    1.9908   54.8097 C.3     1  ZINC000428266315    0.1500
     12 N12        -9.1866    1.2963   53.5284 N.3     1  ZINC000428266315   -0.5300
     13 C13       -10.5560    0.7797   53.4019 C.3     1  ZINC000428266315    0.0200
     14 C14        -8.8490    2.1744   52.4002 C.3     1  ZINC000428266315    0.1400
     15 C15        -7.4881    1.8067   51.8674 C.2     1  ZINC000428266315   -0.2300
     16 C16        -6.3305    2.4597   52.1216 C.2     1  ZINC000428266315    0.0800
     17 N17        -5.3433    1.8193   51.4611 N.pl3   1  ZINC000428266315   -0.3700
     18 C18        -3.9260    2.1901   51.4589 C.3     1  ZINC000428266315    0.1700
     19 C19        -3.3473    1.9546   50.0875 C.ar    1  ZINC000428266315   -0.0800
     20 C20        -3.9432    2.5253   48.9785 C.ar    1  ZINC000428266315   -0.1000
     21 C21        -3.4124    2.3092   47.7205 C.ar    1  ZINC000428266315   -0.0700
     22 C22        -2.2854    1.5228   47.5717 C.ar    1  ZINC000428266315   -0.1700
     23 C23        -1.7070    1.2868   46.2002 C.3     1  ZINC000428266315    0.5100
     24 F24        -0.4375    1.8696   46.1229 F       1  ZINC000428266315   -0.1700
     25 F25        -1.6034   -0.0890   45.9682 F       1  ZINC000428266315   -0.1800
     26 F26        -2.5430    1.8607   45.2365 F       1  ZINC000428266315   -0.1800
     27 C27        -1.6887    0.9531   48.6809 C.ar    1  ZINC000428266315   -0.0700
     28 C28        -2.2172    1.1723   49.9392 C.ar    1  ZINC000428266315   -0.0800
     29 N29        -5.9130    0.7368   50.7783 N.2     1  ZINC000428266315   -0.2900
     30 C30        -7.1974    0.7268   51.0274 C.2     1  ZINC000428266315    0.0600
     31 N31        -8.3129    0.1910   56.4314 N.2     1  ZINC000428266315   -0.4600
     32 H32        -7.0468   -5.4307   59.0057 H       1  ZINC000428266315    0.0700
     33 H33        -5.8869   -4.3525   58.1931 H       1  ZINC000428266315    0.0600
     34 H34        -6.7691   -3.7880   59.6322 H       1  ZINC000428266315    0.0600
     35 H35        -8.0195   -4.4761   56.9341 H       1  ZINC000428266315    0.0500
     36 H36        -8.9018   -3.9116   58.3732 H       1  ZINC000428266315    0.0500
     37 H37        -6.5389   -0.4246   58.6804 H       1  ZINC000428266315    0.0700
     38 H38        -7.8333   -0.1742   59.8763 H       1  ZINC000428266315    0.0700
     39 H39        -6.8936   -1.6859   59.8853 H       1  ZINC000428266315    0.0700
     40 H40        -9.7273    2.8005   54.8917 H       1  ZINC000428266315    0.0800
     41 H41        -7.9932    2.4001   54.8591 H       1  ZINC000428266315    0.1200
     42 H42       -11.2631    1.6077   53.4557 H       1  ZINC000428266315    0.0400
     43 H43       -10.6652    0.2704   52.4445 H       1  ZINC000428266315    0.0800
     44 H44       -10.7559    0.0781   54.2117 H       1  ZINC000428266315    0.0600
     45 H45        -9.5922    2.0552   51.6118 H       1  ZINC000428266315    0.0500
     46 H46        -8.8394    3.2111   52.7369 H       1  ZINC000428266315    0.0900
     47 H47        -6.2170    3.3365   52.7420 H       1  ZINC000428266315    0.1700
     48 H48        -3.8256    3.2436   51.7196 H       1  ZINC000428266315    0.1000
     49 H49        -3.3904    1.5826   52.1884 H       1  ZINC000428266315    0.1100
     50 H50        -4.8238    3.1398   49.0948 H       1  ZINC000428266315    0.1300
     51 H51        -3.8784    2.7547   46.8539 H       1  ZINC000428266315    0.1400
     52 H52        -0.8079    0.3389   48.5646 H       1  ZINC000428266315    0.1400
     53 H53        -1.7511    0.7273   50.8058 H       1  ZINC000428266315    0.1400
     54 H54        -7.9112    0.0126   50.6443 H       1  ZINC000428266315    0.1800
@<TRIPOS>BOND
     1     1     2    1
     2     1    32    1
     3     1    33    1
     4     1    34    1
     5     2     3    1
     6     2    35    1
     7     2    36    1
     8     3     4    1
     9     4     5    1
    10     4     6    1
    11     4     7    1
    12     6    37    1
    13     6    38    1
    14     6    39    1
    15     7    31    1
    16     7     8    2
    17     8     9    1
    18     9    10    1
    19    10    11    1
    20    10    31    2
    21    11    12    1
    22    11    40    1
    23    11    41    1
    24    12    13    1
    25    12    14    1
    26    13    42    1
    27    13    43    1
    28    13    44    1
    29    14    15    1
    30    14    45    1
    31    14    46    1
    32    15    30    1
    33    15    16    2
    34    16    17    1
    35    16    47    1
    36    17    18    1
    37    17    29    1
    38    18    19    1
    39    18    48    1
    40    18    49    1
    41    19    28   ar
    42    19    20   ar
    43    20    21   ar
    44    20    50    1
    45    21    22   ar
    46    21    51    1
    47    22    23    1
    48    22    27   ar
    49    23    24    1
    50    23    25    1
    51    23    26    1
    52    27    28   ar
    53    27    52    1
    54    28    53    1
    55    29    30    2
    56    30    54    1
@<TRIPOS>SUBSTRUCTURE
     1 ZINC000428266315        1 TEMP              0 ****  ****    0 ROOT


##########                                Name:    ZINC000824084043
##########                DOCK_Rotatable_Bonds:                  11
##########                         Heavy_Atoms:                  27
##########                    Molecular_Weight:             382.547
##########                DOCK_Rotatable_Bonds:                  11
##########                       Formal_Charge:        -6.85453e-07
##########                     HBond_Acceptors:                   7
##########                        HBond_Donors:                   3
##########                         Heavy_Atoms:                  27
##########                          Grid_Score:          -37.041283
##########                     Grid_vdw_energy:          -33.497822
##########                      Grid_es_energy:           -3.543460
##########           Internal_energy_repulsive:           17.467432

@<TRIPOS>MOLECULE
ZINC000824084043
 65 66 1 0 0
SMALL
USER_CHARGES


@<TRIPOS>ATOM
      1 C1        -10.1029    0.7304   59.0567 C.3     1  ZINC000824084043   -0.1400
      2 C2         -9.0680    0.6753   57.9312 C.3     1  ZINC000824084043   -0.1000
      3 C3         -7.6857    0.3925   58.5228 C.3     1  ZINC000824084043   -0.1300
      4 C4         -9.4404   -0.4380   56.9500 C.3     1  ZINC000824084043    0.1700
      5 H5        -10.5198   -0.4436   56.7994 H       1  ZINC000824084043    0.0700
      6 C6         -8.7399   -0.1939   55.6119 C.3     1  ZINC000824084043   -0.1400
      7 C7         -9.3625    1.0233   54.9250 C.3     1  ZINC000824084043    0.1300
      8 N8         -9.0749    0.9740   53.4892 N.am    1  ZINC000824084043   -0.6200
      9 C9         -9.9978    0.2895   52.5805 C.3     1  ZINC000824084043    0.0800
     10 C10        -7.9614    1.5583   53.0046 C.2     1  ZINC000824084043    0.7000
     11 O11        -7.1961    2.1277   53.7586 O.2     1  ZINC000824084043   -0.5800
     12 N12        -7.6960    1.5116   51.6840 N.am    1  ZINC000824084043   -0.7500
     13 C13        -6.4865    2.1482   51.1569 C.3     1  ZINC000824084043    0.1600
     14 C14        -5.2694    1.2725   51.4687 C.3     1  ZINC000824084043   -0.1600
     15 C15        -4.0215    1.9032   50.8468 C.3     1  ZINC000824084043   -0.0100
     16 N16        -4.1932    2.0051   49.3927 N.4     1  ZINC000824084043   -0.3800
     17 H17        -4.3812    1.0897   49.0122 H       1  ZINC000824084043    0.4200
     18 C18        -2.9639    2.5402   48.7922 C.3     1  ZINC000824084043    0.0000
     19 C19        -2.5228    1.6347   47.6405 C.3     1  ZINC000824084043   -0.1200
     20 C20        -2.0027    2.4824   46.4531 C.3     1  ZINC000824084043   -0.1400
     21 C21        -1.0811    1.4895   45.7022 C.3     1  ZINC000824084043   -0.1200
     22 C22        -0.3898    0.6906   46.8264 C.3     1  ZINC000824084043   -0.1300
     23 C23        -1.3065    0.7829   48.0588 C.3     1  ZINC000824084043   -0.1100
     24 C24        -5.3145    2.9010   49.0851 C.3     1  ZINC000824084043    0.0000
     25 C25        -6.6122    2.3087   49.6391 C.3     1  ZINC000824084043   -0.1600
     26 N26        -9.0167   -1.7305   57.4943 N.am    1  ZINC000824084043   -0.7800
     27 C27        -9.6604   -2.8579   57.1321 C.2     1  ZINC000824084043    0.6600
     28 O28       -10.5991   -2.8018   56.3502 O.co2   1  ZINC000824084043   -0.7200
     29 O29        -9.3056   -3.9371   57.5854 O.co2   1  ZINC000824084043   -0.7300
     30 H30        -9.8376    1.5236   59.7557 H       1  ZINC000824084043    0.0500
     31 H31       -11.0878    0.9319   58.6352 H       1  ZINC000824084043    0.0500
     32 H32       -10.1207   -0.2250   59.5810 H       1  ZINC000824084043    0.0500
     33 H33        -9.0502    1.6308   57.4068 H       1  ZINC000824084043    0.0500
     34 H34        -7.7034   -0.5629   59.0471 H       1  ZINC000824084043    0.0600
     35 H35        -6.9483    0.3533   57.7210 H       1  ZINC000824084043    0.0700
     36 H36        -7.4204    1.1856   59.2218 H       1  ZINC000824084043    0.0300
     37 H37        -7.6795   -0.0106   55.7849 H       1  ZINC000824084043    0.0700
     38 H38        -8.8579   -1.0704   54.9748 H       1  ZINC000824084043    0.0600
     39 H39       -10.4413    1.0157   55.0799 H       1  ZINC000824084043    0.0900
     40 H40        -8.9409    1.9348   55.3488 H       1  ZINC000824084043    0.0900
     41 H41       -10.7453    0.9968   52.2211 H       1  ZINC000824084043    0.0600
     42 H42        -9.4421   -0.1133   51.7338 H       1  ZINC000824084043    0.0600
     43 H43       -10.4928   -0.5243   53.1105 H       1  ZINC000824084043    0.0800
     44 H44        -8.3059    1.0562   51.0826 H       1  ZINC000824084043    0.4000
     45 H45        -6.3598    3.1278   51.6178 H       1  ZINC000824084043    0.1100
     46 H46        -5.1407    1.1995   52.5485 H       1  ZINC000824084043    0.1200
     47 H47        -5.4207    0.2771   51.0512 H       1  ZINC000824084043    0.0900
     48 H48        -3.8710    2.8984   51.2651 H       1  ZINC000824084043    0.1300
     49 H49        -3.1530    1.2823   51.0671 H       1  ZINC000824084043    0.1300
     50 H50        -3.1520    3.5447   48.4132 H       1  ZINC000824084043    0.1300
     51 H51        -2.1778    2.5778   49.5464 H       1  ZINC000824084043    0.1300
     52 H52        -3.3459    0.9945   47.3231 H       1  ZINC000824084043    0.1000
     53 H53        -2.8273    2.8017   45.8159 H       1  ZINC000824084043    0.0700
     54 H54        -1.4348    3.3412   46.8112 H       1  ZINC000824084043    0.0800
     55 H55        -1.6705    0.8259   45.0695 H       1  ZINC000824084043    0.0700
     56 H56        -0.3431    2.0286   45.1082 H       1  ZINC000824084043    0.0800
     57 H57        -0.2716   -0.3505   46.5261 H       1  ZINC000824084043    0.0700
     58 H58         0.5831    1.1277   47.0511 H       1  ZINC000824084043    0.0700
     59 H59        -0.7785    1.2648   48.8817 H       1  ZINC000824084043    0.0700
     60 H60        -1.6332   -0.2134   48.3566 H       1  ZINC000824084043    0.0800
     61 H61        -5.1364    3.8749   49.5409 H       1  ZINC000824084043    0.1300
     62 H62        -5.4007    3.0168   48.0047 H       1  ZINC000824084043    0.1300
     63 H63        -6.7914    1.3349   49.1837 H       1  ZINC000824084043    0.0900
     64 H64        -7.4432    2.9763   49.4113 H       1  ZINC000824084043    0.1200
     65 H65        -8.2730   -1.7748   58.1155 H       1  ZINC000824084043    0.3600
@<TRIPOS>BOND
     1     1     2    1
     2     1    30    1
     3     1    31    1
     4     1    32    1
     5     2     3    1
     6     2     4    1
     7     2    33    1
     8     3    34    1
     9     3    35    1
    10     3    36    1
    11     4     5    1
    12     4     6    1
    13     4    26    1
    14     6     7    1
    15     6    37    1
    16     6    38    1
    17     7     8    1
    18     7    39    1
    19     7    40    1
    20     8     9    1
    21     8    10   am
    22     9    41    1
    23     9    42    1
    24     9    43    1
    25    10    11    2
    26    10    12   am
    27    12    13    1
    28    12    44    1
    29    13    25    1
    30    13    14    1
    31    13    45    1
    32    14    15    1
    33    14    46    1
    34    14    47    1
    35    15    16    1
    36    15    48    1
    37    15    49    1
    38    16    17    1
    39    16    18    1
    40    16    24    1
    41    18    19    1
    42    18    50    1
    43    18    51    1
    44    19    23    1
    45    19    20    1
    46    19    52    1
    47    20    21    1
    48    20    53    1
    49    20    54    1
    50    21    22    1
    51    21    55    1
    52    21    56    1
    53    22    23    1
    54    22    57    1
    55    22    58    1
    56    23    59    1
    57    23    60    1
    58    24    25    1
    59    24    61    1
    60    24    62    1
    61    25    63    1
    62    25    64    1
    63    26    27   am
    64    26    65    1
    65    27    28   ar
    66    27    29   ar
@<TRIPOS>SUBSTRUCTURE
     1 ZINC000824084043        1 TEMP              0 ****  ****    0 ROOT


##########                                Name:    ZINC000124554441
##########                DOCK_Rotatable_Bonds:                   9
##########                         Heavy_Atoms:                  26
##########                    Molecular_Weight:             375.898
##########                DOCK_Rotatable_Bonds:                   9
##########                       Formal_Charge:         -0.00999991
##########                     HBond_Acceptors:                   6
##########                        HBond_Donors:                   1
##########                         Heavy_Atoms:                  26
##########                          Grid_Score:          -36.874607
##########                     Grid_vdw_energy:          -33.924526
##########                      Grid_es_energy:           -2.950082
##########           Internal_energy_repulsive:           12.414691

@<TRIPOS>MOLECULE
ZINC000124554441
 52 53 1 0 0
SMALL
USER_CHARGES


@<TRIPOS>ATOM
      1 C1         -4.2556    2.8204   66.0917 C.3     1  ZINC000124554441   -0.1500
      2 C2         -5.4039    2.0465   66.7424 C.3     1  ZINC000124554441   -0.1300
      3 C3         -6.2704    1.4090   65.6545 C.3     1  ZINC000124554441   -0.1200
      4 C4         -7.3637    0.5596   66.3056 C.3     1  ZINC000124554441   -0.1200
      5 C5         -8.1084   -0.2282   65.2260 C.3     1  ZINC000124554441   -0.1300
      6 C6         -9.2446    0.6275   64.6625 C.3     1  ZINC000124554441    0.1200
      7 N7         -8.8863    1.0923   63.3201 N.am    1  ZINC000124554441   -0.7300
      8 C8         -9.7432    0.9159   62.2948 C.2     1  ZINC000124554441    0.5200
      9 O9        -10.8102    0.3713   62.4833 O.2     1  ZINC000124554441   -0.5300
     10 C10        -9.3753    1.3956   60.9144 C.3     1  ZINC000124554441   -0.1200
     11 H11       -10.2158    1.2381   60.2385 H       1  ZINC000124554441    0.1000
     12 C12        -9.0338    2.8865   60.9659 C.3     1  ZINC000124554441   -0.1000
     13 C13        -8.6919    3.3822   59.5589 C.3     1  ZINC000124554441   -0.1400
     14 C14        -7.4672    2.6234   59.0381 C.3     1  ZINC000124554441    0.0900
     15 N15        -7.7340    1.1809   59.1215 N.am    1  ZINC000124554441   -0.6000
     16 C16        -7.5918    0.3925   58.0378 C.2     1  ZINC000124554441    0.5600
     17 O17        -7.2398    0.8732   56.9784 O.2     1  ZINC000124554441   -0.5200
     18 C18        -7.8642   -1.0581   58.1375 C.ar    1  ZINC000124554441   -0.0900
     19 C19        -6.8570   -1.9300   58.5557 C.ar    1  ZINC000124554441   -0.0900
     20 C20        -7.1093   -3.2807   58.6490 C.ar    1  ZINC000124554441   -0.0600
     21 C21        -8.3730   -3.7793   58.3249 C.ar    1  ZINC000124554441    0.0100
     22 C22        -8.6355   -5.1837   58.4218 C.1     1  ZINC000124554441    0.2400
     23 N23        -8.8437   -6.2979   58.4988 N.1     1  ZINC000124554441   -0.3800
     24 C24        -9.3819   -2.9065   57.9061 C.ar    1  ZINC000124554441    0.0000
     25 Cl25      -10.9533   -3.5248   57.5033 Cl      1  ZINC000124554441   -0.0400
     26 C26        -9.1297   -1.5538   57.8190 C.ar    1  ZINC000124554441   -0.0600
     27 C27        -8.1589    0.6137   60.4086 C.3     1  ZINC000124554441    0.1200
     28 H28        -3.6485    2.1378   65.4970 H       1  ZINC000124554441    0.0500
     29 H29        -4.6621    3.6001   65.4476 H       1  ZINC000124554441    0.0500
     30 H30        -3.6383    3.2745   66.8667 H       1  ZINC000124554441    0.0500
     31 H31        -4.9974    1.2666   67.3865 H       1  ZINC000124554441    0.0600
     32 H32        -6.0111    2.7290   67.3371 H       1  ZINC000124554441    0.0600
     33 H33        -6.7296    2.1917   65.0507 H       1  ZINC000124554441    0.0600
     34 H34        -5.6496    0.7773   65.0192 H       1  ZINC000124554441    0.0600
     35 H35        -6.9113   -0.1339   67.0145 H       1  ZINC000124554441    0.0700
     36 H36        -8.0646    1.2092   66.8300 H       1  ZINC000124554441    0.0700
     37 H37        -7.4173   -0.4882   64.4242 H       1  ZINC000124554441    0.0700
     38 H38        -8.5205   -1.1391   65.6601 H       1  ZINC000124554441    0.0700
     39 H39       -10.1561    0.0321   64.6096 H       1  ZINC000124554441    0.0700
     40 H40        -9.4092    1.4868   65.3125 H       1  ZINC000124554441    0.0700
     41 H41        -8.0323    1.5268   63.1692 H       1  ZINC000124554441    0.4000
     42 H42        -9.8899    3.4422   61.3487 H       1  ZINC000124554441    0.0800
     43 H43        -8.1779    3.0406   61.6231 H       1  ZINC000124554441    0.0800
     44 H44        -9.5385    3.2059   58.8954 H       1  ZINC000124554441    0.0700
     45 H45        -8.4715    4.4491   59.5926 H       1  ZINC000124554441    0.0900
     46 H46        -7.2794    2.9008   58.0008 H       1  ZINC000124554441    0.1000
     47 H47        -6.5981    2.8701   59.6477 H       1  ZINC000124554441    0.0800
     48 H48        -5.8794   -1.5451   58.8058 H       1  ZINC000124554441    0.1500
     49 H49        -6.3298   -3.9545   58.9725 H       1  ZINC000124554441    0.1500
     50 H50        -9.9084   -0.8790   57.4956 H       1  ZINC000124554441    0.1500
     51 H51        -7.3464    0.6964   61.1304 H       1  ZINC000124554441    0.0800
     52 H52        -8.4269   -0.4345   60.2754 H       1  ZINC000124554441    0.1000
@<TRIPOS>BOND
     1     1     2    1
     2     1    28    1
     3     1    29    1
     4     1    30    1
     5     2     3    1
     6     2    31    1
     7     2    32    1
     8     3     4    1
     9     3    33    1
    10     3    34    1
    11     4     5    1
    12     4    35    1
    13     4    36    1
    14     5     6    1
    15     5    37    1
    16     5    38    1
    17     6     7    1
    18     6    39    1
    19     6    40    1
    20     7     8   am
    21     7    41    1
    22     8     9    2
    23     8    10    1
    24    10    11    1
    25    10    27    1
    26    10    12    1
    27    12    13    1
    28    12    42    1
    29    12    43    1
    30    13    14    1
    31    13    44    1
    32    13    45    1
    33    14    15    1
    34    14    46    1
    35    14    47    1
    36    15    16   am
    37    15    27    1
    38    16    17    2
    39    16    18    1
    40    18    26   ar
    41    18    19   ar
    42    19    20   ar
    43    19    48    1
    44    20    21   ar
    45    20    49    1
    46    21    22    1
    47    21    24   ar
    48    22    23    3
    49    24    25    1
    50    24    26   ar
    51    26    50    1
    52    27    51    1
    53    27    52    1
@<TRIPOS>SUBSTRUCTURE
     1 ZINC000124554441        1 TEMP              0 ****  ****    0 ROOT


##########                                Name:     oleObject79.pdb
##########                DOCK_Rotatable_Bonds:                  12
##########                         Heavy_Atoms:                  53
##########                    Molecular_Weight:             725.376
##########                DOCK_Rotatable_Bonds:                  12
##########                       Formal_Charge:          0.00050066
##########                     HBond_Acceptors:                   8
##########                        HBond_Donors:                   4
##########                         Heavy_Atoms:                  53
##########                          Grid_Score:          -36.857761
##########                     Grid_vdw_energy:          -37.379566
##########                      Grid_es_energy:            0.521805
##########           Internal_energy_repulsive:           41.924278

@<TRIPOS>MOLECULE
oleObject79.pdb
 102 108 1 0 0
SMALL
NO_CHARGES


@<TRIPOS>ATOM
      1 C         -17.3217   -1.9528   57.0231 C.ar    1  UNL        -0.0620
      2 C         -16.9058   -0.9349   57.8925 C.ar    1  UNL        -0.0590
      3 C         -15.5553   -0.5374   57.9446 C.ar    1  UNL        -0.0456
      4 C         -14.6018   -1.1723   57.1051 C.ar    1  UNL        -0.0185
      5 C         -15.0409   -2.1949   56.2363 C.ar    1  UNL        -0.0565
      6 C         -16.3873   -2.5838   56.1941 C.ar    1  UNL        -0.0619
      7 C         -13.1207   -0.7437   57.0781 C.3     1  UNL         0.0931
      8 C         -12.3385   -1.0164   58.3766 C.ar    1  UNL         0.0683
      9 C         -11.3119   -0.1422   58.8171 C.ar    1  UNL        -0.0272
     10 C         -10.6360   -0.4497   60.0130 C.ar    1  UNL        -0.0559
     11 C         -10.9981   -1.6009   60.7270 C.ar    1  UNL        -0.0435
     12 C         -12.0264   -2.4088   60.2207 C.ar    1  UNL         0.0272
     13 N         -12.6773   -2.1237   59.0776 N.ar    1  UNL        -0.2587
     14 C         -10.9191    1.1106   58.0408 C.3     1  UNL        -0.0379
     15 N         -12.4439   -1.2125   55.8365 N.am    1  UNL        -0.2918
     16 C         -12.6744   -0.5679   54.6192 C.2     1  UNL         0.2179
     17 O         -11.9054   -0.7292   53.6862 O.2     1  UNL        -0.2772
     18 C         -13.6550    0.6354   54.6451 C.3     1  UNL         0.0361
     19 C         -14.4600    0.7981   53.3239 C.3     1  UNL        -0.0412
     20 C         -13.6186    1.3520   52.1409 C.3     1  UNL        -0.0453
     21 C         -12.8194    2.6480   52.4708 C.3     1  UNL        -0.0139
     22 C         -11.7836    2.8889   51.3377 C.3     1  UNL         0.0171
     23 N         -11.0629    4.1623   51.5391 N.pl3   1  UNL        -0.3290
     24 C         -11.9341    5.3538   51.5289 C.3     1  UNL         0.0115
     25 C         -13.0372    5.2308   52.6064 C.3     1  UNL        -0.0368
     26 C         -13.7840    3.8762   52.5165 C.3     1  UNL        -0.0446
     27 C          -9.6661    4.2305   51.5039 C.ar    1  UNL         0.0476
     28 C          -8.9460    4.1071   52.7082 C.ar    1  UNL        -0.0375
     29 C          -7.5458    4.1990   52.7252 C.ar    1  UNL        -0.0388
     30 C          -6.8324    4.4390   51.5409 C.ar    1  UNL         0.0318
     31 C          -7.5424    4.5459   50.3309 C.ar    1  UNL        -0.0202
     32 C          -8.9442    4.4499   50.3067 C.ar    1  UNL         0.0636
     33 CL         -9.7327    4.6814   48.7557 Cl      1  UNL        -0.0822
     34 N          -5.4427    4.5244   51.5963 N.pl3   1  UNL        -0.3149
     35 C          -4.4573    4.1678   50.6773 C.ar    1  UNL         0.0302
     36 C          -4.6117    3.0829   49.7947 C.ar    1  UNL        -0.0402
     37 C          -3.6078    2.7704   48.8642 C.ar    1  UNL        -0.0525
     38 C          -2.4184    3.5358   48.7784 C.ar    1  UNL        -0.0182
     39 C          -2.2879    4.6359   49.6621 C.ar    1  UNL        -0.0525
     40 C          -3.2950    4.9506   50.5891 C.ar    1  UNL        -0.0402
     41 C          -1.3439    3.2026   47.7844 C.ar    1  UNL        -0.0177
     42 C          -1.5721    2.2726   46.7381 C.ar    1  UNL        -0.0439
     43 C          -0.5716    1.9456   45.7969 C.ar    1  UNL         0.0111
     44 C           0.6898    2.5663   45.9089 C.ar    1  UNL        -0.0518
     45 C           0.9398    3.4902   46.9336 C.ar    1  UNL        -0.0609
     46 C          -0.0648    3.8056   47.8597 C.ar    1  UNL        -0.0543
     47 C          -0.8266    1.0281   44.7725 C.2     1  UNL         0.1014
     48 N           0.0477    0.7358   43.8812 N.3     1  UNL        -0.2892
     49 N          -2.0143    0.4150   44.6788 N.3     1  UNL        -0.2870
     50 C         -12.0514    2.4546   53.8154 C.3     1  UNL        -0.0453
     51 C         -12.9469    1.9746   54.9775 C.3     1  UNL        -0.0412
     52 C         -11.5057   -2.3513   55.9441 C.3     1  UNL         0.0037
     53 C         -15.1781    0.5915   58.8980 C.3     1  UNL        -0.0394
     54 H         -18.3655   -2.2494   56.9883 H       1  UNL         0.0623
     55 H         -17.6410   -0.4473   58.5261 H       1  UNL         0.0626
     56 H         -14.3331   -2.6952   55.5839 H       1  UNL         0.0627
     57 H         -16.7049   -3.3713   55.5169 H       1  UNL         0.0623
     58 H         -13.1210    0.3456   57.0148 H       1  UNL         0.0626
     59 H          -9.8432    0.1932   60.3848 H       1  UNL         0.0627
     60 H         -10.4943   -1.8611   61.6531 H       1  UNL         0.0639
     61 H         -12.3399   -3.3108   60.7450 H       1  UNL         0.0840
     62 H         -10.5579    0.8583   57.0365 H       1  UNL         0.0280
     63 H         -10.1171    1.6636   58.5452 H       1  UNL         0.0280
     64 H         -11.7692    1.7958   57.9346 H       1  UNL         0.0280
     65 H         -14.3822    0.4278   55.4395 H       1  UNL         0.0401
     66 H         -15.2995    1.4809   53.5068 H       1  UNL         0.0275
     67 H         -14.9070   -0.1632   53.0397 H       1  UNL         0.0275
     68 H         -14.2791    1.5281   51.2820 H       1  UNL         0.0273
     69 H         -12.9165    0.5774   51.8109 H       1  UNL         0.0273
     70 H         -12.2989    2.9129   50.3686 H       1  UNL         0.0474
     71 H         -11.0752    2.0503   51.3151 H       1  UNL         0.0474
     72 H         -12.4077    5.4423   50.5429 H       1  UNL         0.0468
     73 H         -11.3523    6.2686   51.6961 H       1  UNL         0.0468
     74 H         -13.7529    6.0547   52.4934 H       1  UNL         0.0283
     75 H         -12.5929    5.3420   53.6025 H       1  UNL         0.0283
     76 H         -14.3892    3.8871   51.6005 H       1  UNL         0.0273
     77 H         -14.4939    3.7939   53.3476 H       1  UNL         0.0273
     78 H          -9.4738    3.9305   53.6409 H       1  UNL         0.0644
     79 H          -7.0146    4.0989   53.6676 H       1  UNL         0.0643
     80 H          -7.0092    4.7011   49.3982 H       1  UNL         0.0659
     81 H          -5.0850    4.9367   52.4483 H       1  UNL         0.1528
     82 H          -5.5172    2.4863   49.8101 H       1  UNL         0.0643
     83 H          -3.7556    1.9151   48.2123 H       1  UNL         0.0630
     84 H          -1.4072    5.2688   49.6185 H       1  UNL         0.0630
     85 H          -3.1672    5.8057   51.2470 H       1  UNL         0.0643
     86 H          -2.5475    1.8038   46.6535 H       1  UNL         0.0637
     87 H           1.4791    2.3462   45.1954 H       1  UNL         0.0630
     88 H           1.9151    3.9624   47.0109 H       1  UNL         0.0623
     89 H           0.1616    4.5111   48.6531 H       1  UNL         0.0629
     90 H           0.6480    1.5400   43.6866 H       1  UNL         0.1889
     91 H          -2.3705    0.1348   43.7668 H       1  UNL         0.1258
     92 H          -2.2496   -0.3251   45.3377 H       1  UNL         0.1258
     93 H         -11.5408    3.3758   54.1171 H       1  UNL         0.0273
     94 H         -11.2584    1.7137   53.6625 H       1  UNL         0.0273
     95 H         -13.7015    2.7383   55.2005 H       1  UNL         0.0275
     96 H         -12.3438    1.8852   55.8870 H       1  UNL         0.0275
     97 H         -11.7515   -3.1284   55.2119 H       1  UNL         0.0433
     98 H         -11.5404   -2.8080   56.9397 H       1  UNL         0.0433
     99 H         -10.4843   -1.9974   55.7568 H       1  UNL         0.0433
    100 H         -16.0305    0.9082   59.5120 H       1  UNL         0.0280
    101 H         -14.8302    1.4727   58.3446 H       1  UNL         0.0280
    102 H         -14.3811    0.2798   59.5846 H       1  UNL         0.0280
@<TRIPOS>BOND
     1     1     2   ar
     2     1     6   ar
     3     1    54    1
     4     2     3   ar
     5     2    55    1
     6     3     4   ar
     7     3    53    1
     8     4     5   ar
     9     4     7    1
    10     5     6   ar
    11     5    56    1
    12     6    57    1
    13     7     8    1
    14     7    15    1
    15     7    58    1
    16     8     9   ar
    17     8    13   ar
    18     9    10   ar
    19     9    14    1
    20    10    11   ar
    21    10    59    1
    22    11    12   ar
    23    11    60    1
    24    12    13   ar
    25    12    61    1
    26    14    62    1
    27    14    63    1
    28    14    64    1
    29    15    16   am
    30    15    52    1
    31    16    17    2
    32    16    18    1
    33    18    19    1
    34    18    51    1
    35    18    65    1
    36    19    20    1
    37    19    66    1
    38    19    67    1
    39    20    21    1
    40    20    68    1
    41    20    69    1
    42    21    22    1
    43    21    26    1
    44    21    50    1
    45    22    23    1
    46    22    70    1
    47    22    71    1
    48    23    24    1
    49    23    27    1
    50    24    25    1
    51    24    72    1
    52    24    73    1
    53    25    26    1
    54    25    74    1
    55    25    75    1
    56    26    76    1
    57    26    77    1
    58    27    28   ar
    59    27    32   ar
    60    28    29   ar
    61    28    78    1
    62    29    30   ar
    63    29    79    1
    64    30    31   ar
    65    30    34    1
    66    31    32   ar
    67    31    80    1
    68    32    33    1
    69    34    35    1
    70    34    81    1
    71    35    36   ar
    72    35    40   ar
    73    36    37   ar
    74    36    82    1
    75    37    38   ar
    76    37    83    1
    77    38    39   ar
    78    38    41    1
    79    39    40   ar
    80    39    84    1
    81    40    85    1
    82    41    42   ar
    83    41    46   ar
    84    42    43   ar
    85    42    86    1
    86    43    44   ar
    87    43    47    1
    88    44    45   ar
    89    44    87    1
    90    45    46   ar
    91    45    88    1
    92    46    89    1
    93    47    48    1
    94    47    49    1
    95    48    90    1
    96    49    91    1
    97    49    92    1
    98    50    51    1
    99    50    93    1
   100    50    94    1
   101    51    95    1
   102    51    96    1
   103    52    97    1
   104    52    98    1
   105    52    99    1
   106    53   100    1
   107    53   101    1
   108    53   102    1
@<TRIPOS>SUBSTRUCTURE
     1 UNL         1 TEMP              0 ****  ****    0 ROOT


##########                                Name:    ZINC000552360217
##########                DOCK_Rotatable_Bonds:                  13
##########                         Heavy_Atoms:                  27
##########                    Molecular_Weight:             401.484
##########                DOCK_Rotatable_Bonds:                  13
##########                       Formal_Charge:          -0.0100002
##########                     HBond_Acceptors:                  10
##########                        HBond_Donors:                   3
##########                         Heavy_Atoms:                  27
##########                          Grid_Score:          -36.731976
##########                     Grid_vdw_energy:          -35.791695
##########                      Grid_es_energy:           -0.940282
##########           Internal_energy_repulsive:           15.093106

@<TRIPOS>MOLECULE
ZINC000552360217
 54 54 1 0 0
SMALL
USER_CHARGES


@<TRIPOS>ATOM
      1 C1         -1.6430    0.2743   44.6622 C.3     1  ZINC000552360217    0.0800
      2 N2         -0.6615    1.3372   44.8930 N.am    1  ZINC000552360217   -1.0000
      3 C3          0.7087    1.1892   44.3961 C.3     1  ZINC000552360217    0.0900
      4 S4         -1.1008    2.7058   45.7153 S.o2    1  ZINC000552360217    2.7000
      5 O5          0.0889    3.4594   45.9047 O.2     1  ZINC000552360217   -0.9500
      6 O6         -2.2494    3.2194   45.0548 O.2     1  ZINC000552360217   -0.9500
      7 C7         -1.6319    2.2031   47.3184 C.ar    1  ZINC000552360217   -0.6900
      8 C8         -0.8103    1.4117   48.1010 C.ar    1  ZINC000552360217    0.0100
      9 C9         -1.2197    1.0129   49.3613 C.ar    1  ZINC000552360217   -0.1400
     10 C10        -2.4511    1.4026   49.8453 C.ar    1  ZINC000552360217   -0.0300
     11 C11        -3.2850    2.2012   49.0607 C.ar    1  ZINC000552360217   -0.1600
     12 C12        -4.6060    2.6230   49.5732 C.2     1  ZINC000552360217    0.5600
     13 O13        -4.8671    3.8054   49.6805 O.2     1  ZINC000552360217   -0.5300
     14 N14        -5.5208    1.6967   49.9215 N.am    1  ZINC000552360217   -0.7100
     15 C15        -6.8306    2.1147   50.4278 C.3     1  ZINC000552360217    0.1000
     16 C16        -7.5235    0.9362   51.0618 C.2     1  ZINC000552360217    0.5100
     17 O17        -7.2200   -0.1923   50.7374 O.2     1  ZINC000552360217   -0.5400
     18 N18        -8.4808    1.1364   51.9893 N.am    1  ZINC000552360217   -0.7200
     19 C19        -9.1533   -0.0093   52.6069 C.3     1  ZINC000552360217    0.1400
     20 C20       -10.0970    0.4846   53.7052 C.3     1  ZINC000552360217    0.1000
     21 C21       -11.3578    1.0723   53.0680 C.3     1  ZINC000552360217   -0.1800
     22 C22       -10.4820   -0.6863   54.6115 C.3     1  ZINC000552360217   -0.1800
     23 O23        -9.4414    1.4909   54.4796 O.3     1  ZINC000552360217   -0.3700
     24 C24        -8.3021    1.0186   55.2014 C.3     1  ZINC000552360217    0.0600
     25 C25        -8.6117    1.0185   56.6997 C.3     1  ZINC000552360217    0.0800
     26 O26        -7.4638    0.5699   57.4231 O.3     1  ZINC000552360217   -0.5700
     27 C27        -2.8639    2.6042   47.7926 C.ar    1  ZINC000552360217    0.0400
     28 H28        -1.6135   -0.4336   45.4905 H       1  ZINC000552360217    0.0600
     29 H29        -2.6400    0.7095   44.5917 H       1  ZINC000552360217    0.0900
     30 H30        -1.4061   -0.2436   43.7329 H       1  ZINC000552360217    0.0800
     31 H31         0.8085    0.2317   43.8848 H       1  ZINC000552360217    0.0800
     32 H32         0.9322    1.9977   43.7001 H       1  ZINC000552360217    0.0700
     33 H33         1.4051    1.2280   45.2338 H       1  ZINC000552360217    0.0600
     34 H34         0.1547    1.1035   47.7266 H       1  ZINC000552360217    0.1500
     35 H35        -0.5736    0.3948   49.9671 H       1  ZINC000552360217    0.1400
     36 H36        -2.7695    1.0904   50.8289 H       1  ZINC000552360217    0.1400
     37 H37        -5.3122    0.7532   49.8371 H       1  ZINC000552360217    0.4100
     38 H38        -6.6988    2.9014   51.1707 H       1  ZINC000552360217    0.1000
     39 H39        -7.4355    2.4914   49.6030 H       1  ZINC000552360217    0.1000
     40 H40        -8.7244    2.0390   52.2478 H       1  ZINC000552360217    0.4100
     41 H41        -9.7257   -0.5458   51.8502 H       1  ZINC000552360217    0.0800
     42 H42        -8.4089   -0.6771   53.0406 H       1  ZINC000552360217    0.0900
     43 H43       -11.8579    0.3048   52.4773 H       1  ZINC000552360217    0.0700
     44 H44       -12.0301    1.4243   53.8505 H       1  ZINC000552360217    0.0700
     45 H45       -11.0836    1.9065   52.4223 H       1  ZINC000552360217    0.0700
     46 H46        -9.5838   -1.1050   55.0655 H       1  ZINC000552360217    0.0600
     47 H47       -11.1543   -0.3344   55.3940 H       1  ZINC000552360217    0.0700
     48 H48       -10.9821   -1.4538   54.0209 H       1  ZINC000552360217    0.0700
     49 H49        -8.0627    0.0051   54.8797 H       1  ZINC000552360217    0.0600
     50 H50        -7.4518    1.6722   55.0062 H       1  ZINC000552360217    0.0700
     51 H51        -8.8696    2.0287   57.0176 H       1  ZINC000552360217    0.0600
     52 H52        -9.4498    0.3503   56.8974 H       1  ZINC000552360217    0.0500
     53 H53        -6.6783    1.1189   57.2940 H       1  ZINC000552360217    0.3800
     54 H54        -3.5044    3.2221   47.1807 H       1  ZINC000552360217    0.1500
@<TRIPOS>BOND
     1     1     2    1
     2     1    28    1
     3     1    29    1
     4     1    30    1
     5     2     3    1
     6     2     4   am
     7     3    31    1
     8     3    32    1
     9     3    33    1
    10     4     5    2
    11     4     6    2
    12     4     7    1
    13     7    27   ar
    14     7     8   ar
    15     8     9   ar
    16     8    34    1
    17     9    10   ar
    18     9    35    1
    19    10    11   ar
    20    10    36    1
    21    11    12    1
    22    11    27   ar
    23    12    13    2
    24    12    14   am
    25    14    15    1
    26    14    37    1
    27    15    16    1
    28    15    38    1
    29    15    39    1
    30    16    17    2
    31    16    18   am
    32    18    19    1
    33    18    40    1
    34    19    20    1
    35    19    41    1
    36    19    42    1
    37    20    21    1
    38    20    22    1
    39    20    23    1
    40    21    43    1
    41    21    44    1
    42    21    45    1
    43    22    46    1
    44    22    47    1
    45    22    48    1
    46    23    24    1
    47    24    25    1
    48    24    49    1
    49    24    50    1
    50    25    26    1
    51    25    51    1
    52    25    52    1
    53    26    53    1
    54    27    54    1
@<TRIPOS>SUBSTRUCTURE
     1 ZINC000552360217        1 TEMP              0 ****  ****    0 ROOT


##########                                Name:     oleObject14.pdb
##########                DOCK_Rotatable_Bonds:                   9
##########                         Heavy_Atoms:                  33
##########                    Molecular_Weight:             484.424
##########                DOCK_Rotatable_Bonds:                   9
##########                       Formal_Charge:         0.000299782
##########                     HBond_Acceptors:                   7
##########                        HBond_Donors:                   1
##########                         Heavy_Atoms:                  33
##########                          Grid_Score:          -36.658772
##########                     Grid_vdw_energy:          -36.539326
##########                      Grid_es_energy:           -0.119446
##########           Internal_energy_repulsive:            6.148801

@<TRIPOS>MOLECULE
oleObject14.pdb
 60 63 1 0 0
SMALL
NO_CHARGES


@<TRIPOS>ATOM
      1 C         -12.8698   -2.1659   58.0771 C.ar    1  UNL         0.0422
      2 C         -13.4076   -1.2947   57.1167 C.ar    1  UNL        -0.0408
      3 C         -12.6794   -0.9930   55.9537 C.ar    1  UNL        -0.0288
      4 C         -11.4054   -1.5636   55.7456 C.ar    1  UNL         0.0937
      5 C         -10.8731   -2.4378   56.7153 C.ar    1  UNL         0.0723
      6 C         -11.6036   -2.7375   57.8773 C.ar    1  UNL        -0.0221
      7 CL         -9.2941   -3.1690   56.4967 Cl      1  UNL        -0.0814
      8 O         -10.6573   -1.2930   54.6159 O.3     1  UNL        -0.3432
      9 C          -9.8515   -0.1116   54.4590 C.3     1  UNL         0.0661
     10 C          -8.7912   -0.4053   53.3776 C.3     1  UNL         0.0222
     11 N          -8.3298    0.8041   52.6605 N.4     1  UNL        -0.3010
     12 C          -7.4111    1.6630   53.4441 C.3     1  UNL        -0.0010
     13 C          -7.0538    2.9630   52.6896 C.3     1  UNL        -0.0289
     14 C          -6.4915    2.7000   51.2717 C.3     1  UNL         0.0382
     15 C          -7.4197    1.7249   50.5043 C.3     1  UNL        -0.0289
     16 C          -7.7992    0.4676   51.3217 C.3     1  UNL        -0.0010
     17 C          -5.0258    2.2018   51.3204 C.2     1  UNL         0.2156
     18 O          -4.5538    1.6874   52.3178 O.2     1  UNL        -0.2774
     19 N          -4.2264    2.2950   50.1883 N.am    1  UNL        -0.3025
     20 C          -2.8193    1.8773   50.0426 C.3     1  UNL         0.0900
     21 C          -2.4344    1.5763   48.5953 C.ar    1  UNL        -0.0217
     22 C          -1.4003    0.6685   48.2897 C.ar    1  UNL        -0.0568
     23 C          -1.0517    0.4117   46.9537 C.ar    1  UNL        -0.0619
     24 C          -1.7362    1.0574   45.9120 C.ar    1  UNL        -0.0622
     25 C          -2.7713    1.9580   46.2079 C.ar    1  UNL        -0.0619
     26 C          -3.1196    2.2146   47.5440 C.ar    1  UNL        -0.0568
     27 C          -1.8625    2.8960   50.6547 C.ar    1  UNL         0.0652
     28 C          -0.6305    2.5087   51.2214 C.ar    1  UNL        -0.0383
     29 C           0.2034    3.4920   51.7773 C.ar    1  UNL        -0.0588
     30 C          -0.2239    4.8286   51.7485 C.ar    1  UNL        -0.0438
     31 C          -1.4676    5.1271   51.1658 C.ar    1  UNL         0.0272
     32 N          -2.2697    4.1840   50.6316 N.ar    1  UNL        -0.2590
     33 CL        -13.7797   -2.5397   59.5252 Cl      1  UNL        -0.0843
     34 H         -14.3879   -0.8529   57.2720 H       1  UNL         0.0639
     35 H         -13.1148   -0.3174   55.2246 H       1  UNL         0.0652
     36 H         -11.1883   -3.4117   58.6211 H       1  UNL         0.0655
     37 H          -9.3645    0.1383   55.4093 H       1  UNL         0.0586
     38 H         -10.4744    0.7335   54.1389 H       1  UNL         0.0586
     39 H          -9.2365   -1.1032   52.6564 H       1  UNL         0.0455
     40 H          -7.9361   -0.9134   53.8424 H       1  UNL         0.0455
     41 H          -6.4899    1.1099   53.6698 H       1  UNL         0.0431
     42 H          -7.8690    1.9465   54.3987 H       1  UNL         0.0431
     43 H          -6.3381    3.5465   53.2804 H       1  UNL         0.0288
     44 H          -7.9605    3.5755   52.6029 H       1  UNL         0.0288
     45 H          -6.5296    3.6457   50.7246 H       1  UNL         0.0402
     46 H          -6.9517    1.4269   49.5574 H       1  UNL         0.0288
     47 H          -8.3446    2.2550   50.2425 H       1  UNL         0.0288
     48 H          -6.9184   -0.1782   51.4265 H       1  UNL         0.0431
     49 H          -8.5510   -0.0981   50.7562 H       1  UNL         0.0431
     50 H          -4.6975    2.5999   49.3461 H       1  UNL         0.1504
     51 H          -2.7026    0.9542   50.6247 H       1  UNL         0.0624
     52 H          -0.8583    0.1672   49.0862 H       1  UNL         0.0626
     53 H          -0.2509   -0.2862   46.7264 H       1  UNL         0.0623
     54 H          -1.4668    0.8584   44.8786 H       1  UNL         0.0623
     55 H          -3.3044    2.4558   45.4029 H       1  UNL         0.0623
     56 H          -3.9238    2.9119   47.7624 H       1  UNL         0.0626
     57 H          -0.3251    1.4668   51.2313 H       1  UNL         0.0643
     58 H           1.1582    3.2240   52.2203 H       1  UNL         0.0624
     59 H           0.3935    5.6171   52.1687 H       1  UNL         0.0639
     60 H          -1.8330    6.1526   51.1257 H       1  UNL         0.0840
@<TRIPOS>BOND
     1     1     2   ar
     2     1     6   ar
     3     1    33    1
     4     2     3   ar
     5     2    34    1
     6     3     4   ar
     7     3    35    1
     8     4     5   ar
     9     4     8    1
    10     5     6   ar
    11     5     7    1
    12     6    36    1
    13     8     9    1
    14     9    10    1
    15     9    37    1
    16     9    38    1
    17    10    11    1
    18    10    39    1
    19    10    40    1
    20    11    12    1
    21    11    16    1
    22    12    13    1
    23    12    41    1
    24    12    42    1
    25    13    14    1
    26    13    43    1
    27    13    44    1
    28    14    15    1
    29    14    17    1
    30    14    45    1
    31    15    16    1
    32    15    46    1
    33    15    47    1
    34    16    48    1
    35    16    49    1
    36    17    18    2
    37    17    19   am
    38    19    20    1
    39    19    50    1
    40    20    21    1
    41    20    27    1
    42    20    51    1
    43    21    22   ar
    44    21    26   ar
    45    22    23   ar
    46    22    52    1
    47    23    24   ar
    48    23    53    1
    49    24    25   ar
    50    24    54    1
    51    25    26   ar
    52    25    55    1
    53    26    56    1
    54    27    28   ar
    55    27    32   ar
    56    28    29   ar
    57    28    57    1
    58    29    30   ar
    59    29    58    1
    60    30    31   ar
    61    30    59    1
    62    31    32   ar
    63    31    60    1
@<TRIPOS>SUBSTRUCTURE
     1 UNL         1 TEMP              0 ****  ****    0 ROOT


##########                                Name:    ZINC000062291520
##########                DOCK_Rotatable_Bonds:                  10
##########                         Heavy_Atoms:                  29
##########                    Molecular_Weight:             398.502
##########                DOCK_Rotatable_Bonds:                  10
##########                       Formal_Charge:          -0.0100006
##########                     HBond_Acceptors:                   6
##########                        HBond_Donors:                   1
##########                         Heavy_Atoms:                  29
##########                          Grid_Score:          -36.552444
##########                     Grid_vdw_energy:          -35.599396
##########                      Grid_es_energy:           -0.953048
##########           Internal_energy_repulsive:           15.580958

@<TRIPOS>MOLECULE
ZINC000062291520
 59 61 1 0 0
SMALL
USER_CHARGES


@<TRIPOS>ATOM
      1 C1         -8.5017   -1.4230   58.3775 C.3     1  ZINC000062291520    0.0300
      2 O2         -8.2847   -0.8244   57.0981 O.3     1  ZINC000062291520   -0.3100
      3 C3         -7.7341    0.4190   57.0836 C.ar    1  ZINC000062291520    0.1000
      4 C4         -7.2134    0.9612   58.2471 C.ar    1  ZINC000062291520   -0.1700
      5 C5         -6.6591    2.2280   58.2318 C.ar    1  ZINC000062291520   -0.1200
      6 C6         -6.6178    2.9535   57.0562 C.ar    1  ZINC000062291520   -0.1200
      7 C7         -7.1302    2.4155   55.8898 C.ar    1  ZINC000062291520   -0.1700
      8 C8         -7.6870    1.1471   55.8983 C.ar    1  ZINC000062291520    0.1000
      9 O9         -8.1913    0.6166   54.7520 O.3     1  ZINC000062291520   -0.3100
     10 C10        -7.7988    1.2333   53.5242 C.3     1  ZINC000062291520    0.0700
     11 C11        -8.2417    0.3585   52.3497 C.3     1  ZINC000062291520   -0.1400
     12 C12        -7.6602    0.9030   51.0704 C.2     1  ZINC000062291520    0.5200
     13 O13        -7.2742    0.1427   50.2079 O.2     1  ZINC000062291520   -0.5400
     14 N14        -7.5689    2.2347   50.8850 N.am    1  ZINC000062291520   -0.7200
     15 C15        -7.0052    2.7641   49.6406 C.3     1  ZINC000062291520    0.1600
     16 C16        -5.5761    3.1813   49.8741 C.ar    1  ZINC000062291520   -0.1100
     17 C17        -5.2693    4.5138   50.0753 C.ar    1  ZINC000062291520   -0.1000
     18 C18        -3.9582    4.8966   50.2900 C.ar    1  ZINC000062291520   -0.1200
     19 C19        -2.9543    3.9467   50.3032 C.ar    1  ZINC000062291520   -0.0900
     20 C20        -3.2611    2.6138   50.1013 C.ar    1  ZINC000062291520   -0.0800
     21 C21        -2.1665    1.5781   50.1154 C.3     1  ZINC000062291520    0.0900
     22 N22        -1.3594    1.7019   48.8943 N.3     1  ZINC000062291520   -0.5300
     23 C23        -0.0894    0.9729   49.0261 C.3     1  ZINC000062291520    0.0100
     24 C24         0.7439    1.1774   47.7582 C.3     1  ZINC000062291520    0.0600
     25 O25        -0.0117    0.7477   46.6226 O.3     1  ZINC000062291520   -0.3800
     26 C26        -1.2545    1.4373   46.4635 C.3     1  ZINC000062291520    0.0900
     27 H27        -1.0646    2.5008   46.3189 H       1  ZINC000062291520    0.0700
     28 C28        -1.9956    0.8805   45.2464 C.3     1  ZINC000062291520   -0.1500
     29 C29        -2.1081    1.2356   47.7183 C.3     1  ZINC000062291520    0.0200
     30 C30        -4.5726    2.2305   49.8926 C.ar    1  ZINC000062291520   -0.0900
     31 H31        -7.5500   -1.5179   58.9003 H       1  ZINC000062291520    0.0500
     32 H32        -9.1764   -0.7971   58.9617 H       1  ZINC000062291520    0.0600
     33 H33        -8.9443   -2.4104   58.2463 H       1  ZINC000062291520    0.1000
     34 H34        -7.2444    0.3964   59.1671 H       1  ZINC000062291520    0.1400
     35 H35        -6.2571    2.6513   59.1405 H       1  ZINC000062291520    0.1300
     36 H36        -6.1840    3.9425   57.0482 H       1  ZINC000062291520    0.1300
     37 H37        -7.0961    2.9842   54.9723 H       1  ZINC000062291520    0.1400
     38 H38        -6.7148    1.3462   53.5046 H       1  ZINC000062291520    0.0700
     39 H39        -8.2677    2.2140   53.4439 H       1  ZINC000062291520    0.0700
     40 H40        -9.3297    0.3615   52.2844 H       1  ZINC000062291520    0.1100
     41 H41        -7.8898   -0.6616   52.5035 H       1  ZINC000062291520    0.1100
     42 H42        -7.8764    2.8428   51.5753 H       1  ZINC000062291520    0.4000
     43 H43        -7.0375    1.9934   48.8704 H       1  ZINC000062291520    0.0800
     44 H44        -7.5872    3.6267   49.3161 H       1  ZINC000062291520    0.0800
     45 H45        -6.0538    5.2560   50.0654 H       1  ZINC000062291520    0.1200
     46 H46        -3.7185    5.9378   50.4476 H       1  ZINC000062291520    0.1300
     47 H47        -1.9301    4.2457   50.4708 H       1  ZINC000062291520    0.1200
     48 H48        -1.5316    1.7325   50.9879 H       1  ZINC000062291520    0.0500
     49 H49        -2.6087    0.5827   50.1594 H       1  ZINC000062291520    0.0900
     50 H50         0.4600    1.3519   49.8879 H       1  ZINC000062291520    0.0900
     51 H51        -0.2920   -0.0894   49.1619 H       1  ZINC000062291520    0.0400
     52 H52         0.9919    2.2335   47.6519 H       1  ZINC000062291520    0.0600
     53 H53         1.6612    0.5927   47.8274 H       1  ZINC000062291520    0.1000
     54 H54        -2.1865   -0.1826   45.3922 H       1  ZINC000062291520    0.0600
     55 H55        -2.9426    1.4065   45.1257 H       1  ZINC000062291520    0.0700
     56 H56        -1.3856    1.0210   44.3540 H       1  ZINC000062291520    0.0700
     57 H57        -2.3430    0.1773   47.8324 H       1  ZINC000062291520    0.0400
     58 H58        -3.0322    1.8061   47.6255 H       1  ZINC000062291520    0.0900
     59 H59        -4.8128    1.1887   49.7397 H       1  ZINC000062291520    0.1200
@<TRIPOS>BOND
     1     1     2    1
     2     1    31    1
     3     1    32    1
     4     1    33    1
     5     2     3    1
     6     3     8   ar
     7     3     4   ar
     8     4     5   ar
     9     4    34    1
    10     5     6   ar
    11     5    35    1
    12     6     7   ar
    13     6    36    1
    14     7     8   ar
    15     7    37    1
    16     8     9    1
    17     9    10    1
    18    10    11    1
    19    10    38    1
    20    10    39    1
    21    11    12    1
    22    11    40    1
    23    11    41    1
    24    12    13    2
    25    12    14   am
    26    14    15    1
    27    14    42    1
    28    15    16    1
    29    15    43    1
    30    15    44    1
    31    16    30   ar
    32    16    17   ar
    33    17    18   ar
    34    17    45    1
    35    18    19   ar
    36    18    46    1
    37    19    20   ar
    38    19    47    1
    39    20    21    1
    40    20    30   ar
    41    21    22    1
    42    21    48    1
    43    21    49    1
    44    22    29    1
    45    22    23    1
    46    23    24    1
    47    23    50    1
    48    23    51    1
    49    24    25    1
    50    24    52    1
    51    24    53    1
    52    25    26    1
    53    26    27    1
    54    26    28    1
    55    26    29    1
    56    28    54    1
    57    28    55    1
    58    28    56    1
    59    29    57    1
    60    29    58    1
    61    30    59    1
@<TRIPOS>SUBSTRUCTURE
     1 ZINC000062291520        1 TEMP              0 ****  ****    0 ROOT


##########                                Name:    ZINC000740843182
##########                DOCK_Rotatable_Bonds:                  10
##########                         Heavy_Atoms:                  24
##########                    Molecular_Weight:              419.34
##########                DOCK_Rotatable_Bonds:                  10
##########                       Formal_Charge:          0.00999957
##########                     HBond_Acceptors:                   7
##########                        HBond_Donors:                   3
##########                         Heavy_Atoms:                  24
##########                          Grid_Score:          -36.410313
##########                     Grid_vdw_energy:          -34.736572
##########                      Grid_es_energy:           -1.673740
##########           Internal_energy_repulsive:           13.691495

@<TRIPOS>MOLECULE
ZINC000740843182
 47 48 1 0 0
SMALL
USER_CHARGES


@<TRIPOS>ATOM
      1 C1        -10.2710    0.9077   64.0450 C.3     1  ZINC000740843182   -0.1500
      2 C2         -9.0225    0.0888   63.7105 C.3     1  ZINC000740843182   -0.1000
      3 H3         -9.2188   -0.9665   63.9001 H       1  ZINC000740843182    0.0900
      4 C4         -8.6645    0.2841   62.2359 C.3     1  ZINC000740843182    0.1200
      5 N5         -9.2933   -0.7704   61.4368 N.am    1  ZINC000740843182   -0.7200
      6 C6         -9.4736   -0.5956   60.1126 C.2     1  ZINC000740843182    0.5500
      7 O7         -9.1159    0.4377   59.5816 O.2     1  ZINC000740843182   -0.5000
      8 C8        -10.1064   -1.6603   59.3062 C.ar    1  ZINC000740843182   -0.1300
      9 C9        -11.4738   -1.9127   59.4275 C.ar    1  ZINC000740843182    0.0200
     10 C10       -12.0583   -2.9075   58.6714 C.ar    1  ZINC000740843182   -0.6800
     11 S11       -13.7843   -3.2274   58.8234 S.o2    1  ZINC000740843182    2.7000
     12 O12       -14.0015   -4.5234   58.2829 O.2     1  ZINC000740843182   -0.9400
     13 O13       -14.1435   -2.8687   60.1507 O.2     1  ZINC000740843182   -0.9500
     14 N14       -14.5695   -2.1662   57.8235 N.am    1  ZINC000740843182   -1.0900
     15 C15       -14.2969   -2.1777   56.3842 C.3     1  ZINC000740843182    0.0800
     16 C16       -14.8165   -0.9999   55.5572 C.3     1  ZINC000740843182   -0.1800
     17 C17       -13.3191   -1.1332   55.8420 C.3     1  ZINC000740843182   -0.1900
     18 C18       -11.2927   -3.6547   57.7937 C.ar    1  ZINC000740843182    0.0100
     19 C19        -9.9371   -3.4106   57.6679 C.ar    1  ZINC000740843182   -0.1200
     20 C20        -9.3398   -2.4148   58.4147 C.ar    1  ZINC000740843182    0.0100
     21 Br21       -7.4863   -2.0822   58.2417 Br      1  ZINC000740843182    0.0100
     22 C22        -7.8569    0.5559   64.5846 C.3     1  ZINC000740843182   -0.1400
     23 C23        -8.2370    0.4143   66.0599 C.3     1  ZINC000740843182    0.1000
     24 H24        -9.1155    1.0247   66.2690 H       1  ZINC000740843182    0.1000
     25 C25        -7.0715    0.8814   66.9340 C.3     1  ZINC000740843182   -0.1900
     26 O26        -8.5290   -0.9548   66.3471 O.3     1  ZINC000740843182   -0.5600
     27 H27       -10.5261    0.7686   65.0955 H       1  ZINC000740843182    0.0600
     28 H28       -10.0748    1.9630   63.8554 H       1  ZINC000740843182    0.0600
     29 H29       -11.1013    0.5750   63.4222 H       1  ZINC000740843182    0.0500
     30 H30        -9.0236    1.2572   61.9006 H       1  ZINC000740843182    0.0700
     31 H31        -7.5822    0.2349   62.1152 H       1  ZINC000740843182    0.0700
     32 H32        -9.5798   -1.5945   61.8607 H       1  ZINC000740843182    0.4000
     33 H33       -12.0729   -1.3305   60.1120 H       1  ZINC000740843182    0.1500
     34 H34       -15.2098   -1.5370   58.1909 H       1  ZINC000740843182    0.4200
     35 H35       -14.2947   -3.1611   55.9140 H       1  ZINC000740843182    0.1400
     36 H36       -15.1565   -1.2083   54.5429 H       1  ZINC000740843182    0.1100
     37 H37       -15.3611   -0.2165   56.0842 H       1  ZINC000740843182    0.1000
     38 H38       -12.8787   -0.4375   56.5561 H       1  ZINC000740843182    0.1000
     39 H39       -12.6740   -1.4294   55.0148 H       1  ZINC000740843182    0.1100
     40 H40       -11.7560   -4.4323   57.2045 H       1  ZINC000740843182    0.1600
     41 H41        -9.3453   -3.9975   56.9809 H       1  ZINC000740843182    0.1500
     42 H42        -6.9785   -0.0547   64.3755 H       1  ZINC000740843182    0.0700
     43 H43        -7.6342    1.6001   64.3655 H       1  ZINC000740843182    0.0800
     44 H44        -6.8488    1.9257   66.7148 H       1  ZINC000740843182    0.0700
     45 H45        -7.3423    0.7804   67.9850 H       1  ZINC000740843182    0.0600
     46 H46        -6.1930    0.2710   66.7249 H       1  ZINC000740843182    0.0600
     47 H47        -9.2594   -1.3185   65.8281 H       1  ZINC000740843182    0.3700
@<TRIPOS>BOND
     1     1     2    1
     2     1    27    1
     3     1    28    1
     4     1    29    1
     5     2     3    1
     6     2     4    1
     7     2    22    1
     8     4     5    1
     9     4    30    1
    10     4    31    1
    11     5     6   am
    12     5    32    1
    13     6     7    2
    14     6     8    1
    15     8    20   ar
    16     8     9   ar
    17     9    10   ar
    18     9    33    1
    19    10    11    1
    20    10    18   ar
    21    11    12    2
    22    11    13    2
    23    11    14   am
    24    14    15    1
    25    14    34    1
    26    15    17    1
    27    15    16    1
    28    15    35    1
    29    16    17    1
    30    16    36    1
    31    16    37    1
    32    17    38    1
    33    17    39    1
    34    18    19   ar
    35    18    40    1
    36    19    20   ar
    37    19    41    1
    38    20    21    1
    39    22    23    1
    40    22    42    1
    41    22    43    1
    42    23    24    1
    43    23    25    1
    44    23    26    1
    45    25    44    1
    46    25    45    1
    47    25    46    1
    48    26    47    1
@<TRIPOS>SUBSTRUCTURE
     1 ZINC000740843182        1 TEMP              0 ****  ****    0 ROOT


##########                                Name:    ZINC000482187991
##########                DOCK_Rotatable_Bonds:                  11
##########                         Heavy_Atoms:                  29
##########                    Molecular_Weight:             407.414
##########                DOCK_Rotatable_Bonds:                  11
##########                       Formal_Charge:           0.0299996
##########                     HBond_Acceptors:                   8
##########                        HBond_Donors:                   1
##########                         Heavy_Atoms:                  29
##########                          Grid_Score:          -36.369438
##########                     Grid_vdw_energy:          -35.205158
##########                      Grid_es_energy:           -1.164281
##########           Internal_energy_repulsive:           11.645673

@<TRIPOS>MOLECULE
ZINC000482187991
 52 53 1 0 0
SMALL
USER_CHARGES


@<TRIPOS>ATOM
      1 C1         -7.4290    1.8234   58.5977 C.3     1  ZINC000482187991    0.0200
      2 O2         -6.9176    0.8129   57.7262 O.3     1  ZINC000482187991   -0.3000
      3 C3         -7.7547    0.3498   56.7595 C.ar    1  ZINC000482187991    0.1400
      4 C4         -7.9042    1.0543   55.5810 C.ar    1  ZINC000482187991   -0.1700
      5 C5         -8.7659    0.5766   54.5863 C.ar    1  ZINC000482187991   -0.1000
      6 C6         -8.9273    1.3226   53.3317 C.2     1  ZINC000482187991    0.4000
      7 O7        -10.0342    1.4944   52.8664 O.2     1  ZINC000482187991   -0.4500
      8 C8         -7.7177    1.8747   52.6223 C.3     1  ZINC000482187991   -0.1500
      9 C9         -7.4095    1.0147   51.3950 C.3     1  ZINC000482187991   -0.1300
     10 C10        -6.7090    1.8532   50.3571 C.2     1  ZINC000482187991    0.5200
     11 O11        -7.3566    2.4679   49.5362 O.2     1  ZINC000482187991   -0.5200
     12 N12        -5.3631    1.9200   50.3408 N.am    1  ZINC000482187991   -0.7200
     13 C13        -4.6821    2.7338   49.3307 C.3     1  ZINC000482187991    0.1500
     14 H14        -5.3590    2.9188   48.4966 H       1  ZINC000482187991    0.1300
     15 C15        -3.4621    2.0012   48.8346 C.ar    1  ZINC000482187991   -0.1100
     16 C16        -2.5774    1.4414   49.7371 C.ar    1  ZINC000482187991   -0.1000
     17 C17        -1.4583    0.7696   49.2821 C.ar    1  ZINC000482187991   -0.1200
     18 C18        -1.2242    0.6572   47.9243 C.ar    1  ZINC000482187991   -0.1100
     19 C19        -2.1094    1.2163   47.0216 C.ar    1  ZINC000482187991   -0.1200
     20 C20        -3.2307    1.8845   47.4767 C.ar    1  ZINC000482187991   -0.1000
     21 C21        -4.2595    4.0674   49.9502 C.3     1  ZINC000482187991    0.2500
     22 F22        -5.3968    4.7759   50.3522 F       1  ZINC000482187991   -0.1900
     23 F23        -3.4426    3.8278   51.0603 F       1  ZINC000482187991   -0.2000
     24 C24        -9.4730   -0.6146   54.7905 C.ar    1  ZINC000482187991   -0.1900
     25 C25        -9.3184   -1.3136   55.9716 C.ar    1  ZINC000482187991    0.1400
     26 O26       -10.0044   -2.4709   56.1707 O.3     1  ZINC000482187991   -0.3000
     27 C27       -11.4308   -2.3857   56.1815 C.3     1  ZINC000482187991    0.0200
     28 C28        -8.4559   -0.8378   56.9569 C.ar    1  ZINC000482187991    0.0600
     29 O29        -8.3061   -1.5283   58.1171 O.3     1  ZINC000482187991   -0.3100
     30 C30        -7.1451   -2.3528   58.2359 C.3     1  ZINC000482187991    0.0400
     31 H31        -6.6618    2.1029   59.3197 H       1  ZINC000482187991    0.1100
     32 H32        -7.7130    2.6981   58.0125 H       1  ZINC000482187991    0.0600
     33 H33        -8.3024    1.4402   59.1254 H       1  ZINC000482187991    0.0600
     34 H34        -7.3574    1.9729   55.4272 H       1  ZINC000482187991    0.1500
     35 H35        -7.9173    2.8990   52.3073 H       1  ZINC000482187991    0.1100
     36 H36        -6.8630    1.8625   53.2985 H       1  ZINC000482187991    0.1100
     37 H37        -6.7662    0.1841   51.6857 H       1  ZINC000482187991    0.1000
     38 H38        -8.3397    0.6260   50.9807 H       1  ZINC000482187991    0.1000
     39 H39        -4.8452    1.4293   50.9981 H       1  ZINC000482187991    0.4100
     40 H40        -2.7603    1.5291   50.7980 H       1  ZINC000482187991    0.1200
     41 H41        -0.7667    0.3327   49.9872 H       1  ZINC000482187991    0.1300
     42 H42        -0.3495    0.1329   47.5687 H       1  ZINC000482187991    0.1300
     43 H43        -1.9262    1.1288   45.9609 H       1  ZINC000482187991    0.1300
     44 H44        -3.9222    2.3212   46.7715 H       1  ZINC000482187991    0.1300
     45 H45        -3.7088    4.6520   49.2133 H       1  ZINC000482187991    0.1200
     46 H46       -10.1388   -0.9859   54.0255 H       1  ZINC000482187991    0.1500
     47 H47       -11.7489   -1.7156   56.9803 H       1  ZINC000482187991    0.0600
     48 H48       -11.7792   -2.0000   55.2234 H       1  ZINC000482187991    0.0600
     49 H49       -11.8527   -3.3767   56.3492 H       1  ZINC000482187991    0.1100
     50 H50        -7.1508   -3.1044   57.4464 H       1  ZINC000482187991    0.0500
     51 H51        -6.2507   -1.7365   58.1442 H       1  ZINC000482187991    0.0500
     52 H52        -7.1480   -2.8466   59.2076 H       1  ZINC000482187991    0.1000
@<TRIPOS>BOND
     1     1     2    1
     2     1    31    1
     3     1    32    1
     4     1    33    1
     5     2     3    1
     6     3    28   ar
     7     3     4   ar
     8     4     5   ar
     9     4    34    1
    10     5     6    1
    11     5    24   ar
    12     6     7    2
    13     6     8    1
    14     8     9    1
    15     8    35    1
    16     8    36    1
    17     9    10    1
    18     9    37    1
    19     9    38    1
    20    10    11    2
    21    10    12   am
    22    12    13    1
    23    12    39    1
    24    13    14    1
    25    13    15    1
    26    13    21    1
    27    15    20   ar
    28    15    16   ar
    29    16    17   ar
    30    16    40    1
    31    17    18   ar
    32    17    41    1
    33    18    19   ar
    34    18    42    1
    35    19    20   ar
    36    19    43    1
    37    20    44    1
    38    21    22    1
    39    21    23    1
    40    21    45    1
    41    24    25   ar
    42    24    46    1
    43    25    26    1
    44    25    28   ar
    45    26    27    1
    46    27    47    1
    47    27    48    1
    48    27    49    1
    49    28    29    1
    50    29    30    1
    51    30    50    1
    52    30    51    1
    53    30    52    1
@<TRIPOS>SUBSTRUCTURE
     1 ZINC000482187991        1 TEMP              0 ****  ****    0 ROOT


##########                                Name:     oleObject27.pdb
##########                DOCK_Rotatable_Bonds:                   9
##########                         Heavy_Atoms:                  35
##########                    Molecular_Weight:             513.466
##########                DOCK_Rotatable_Bonds:                   9
##########                       Formal_Charge:         0.000199873
##########                     HBond_Acceptors:                   8
##########                        HBond_Donors:                   1
##########                         Heavy_Atoms:                  35
##########                          Grid_Score:          -36.309223
##########                     Grid_vdw_energy:          -36.107262
##########                      Grid_es_energy:           -0.201962
##########           Internal_energy_repulsive:           13.653211

@<TRIPOS>MOLECULE
oleObject27.pdb
 65 68 1 0 0
SMALL
NO_CHARGES


@<TRIPOS>ATOM
      1 C          -9.3755   -2.9758   57.0974 C.ar    1  UNL        -0.0620
      2 C         -10.4176   -2.5775   56.2477 C.ar    1  UNL        -0.0590
      3 C         -10.4459   -1.2787   55.7034 C.ar    1  UNL        -0.0456
      4 C          -9.4065   -0.3660   56.0115 C.ar    1  UNL        -0.0187
      5 C          -8.3698   -0.7781   56.8774 C.ar    1  UNL        -0.0565
      6 C          -8.3521   -2.0736   57.4151 C.ar    1  UNL        -0.0619
      7 C          -9.4031    1.0586   55.4348 C.3     1  UNL         0.0921
      8 C          -8.7793    2.0811   56.3898 C.ar    1  UNL         0.0681
      9 C          -9.5252    2.7019   57.4230 C.ar    1  UNL        -0.0272
     10 C          -8.8737    3.6394   58.2464 C.ar    1  UNL        -0.0559
     11 C          -7.5223    3.9325   58.0122 C.ar    1  UNL        -0.0435
     12 C          -6.8664    3.2822   56.9563 C.ar    1  UNL         0.0272
     13 N          -7.4802    2.3839   56.1635 N.ar    1  UNL        -0.2587
     14 C         -11.0004    2.3981   57.6588 C.3     1  UNL        -0.0379
     15 N          -8.7647    1.1399   54.1130 N.am    1  UNL        -0.2865
     16 C          -8.8130    2.2564   53.2979 C.2     1  UNL         0.3014
     17 O          -9.4067    3.2693   53.6289 O.2     1  UNL        -0.2541
     18 N          -8.1443    2.1401   52.0779 N.am    1  UNL        -0.2833
     19 C          -8.1001    3.2495   51.0865 C.3     1  UNL         0.0284
     20 C          -7.6448    2.8382   49.6652 C.3     1  UNL         0.0142
     21 N          -6.4512    1.9747   49.6823 N.4     1  UNL        -0.2979
     22 C          -6.7453    0.7518   50.4552 C.3     1  UNL         0.0142
     23 C          -7.1342    1.0652   51.9183 C.3     1  UNL         0.0284
     24 C          -5.2156    2.6990   50.0659 C.3     1  UNL         0.0223
     25 C          -3.9897    1.7754   50.2138 C.3     1  UNL         0.0661
     26 O          -2.8604    2.4554   49.6383 O.3     1  UNL        -0.3432
     27 C          -2.3076    2.1216   48.4170 C.ar    1  UNL         0.0937
     28 C          -2.9859    2.3506   47.2006 C.ar    1  UNL        -0.0288
     29 C          -2.3873    1.9961   45.9800 C.ar    1  UNL        -0.0408
     30 C          -1.1109    1.4122   45.9661 C.ar    1  UNL         0.0422
     31 C          -0.4297    1.1815   47.1714 C.ar    1  UNL        -0.0221
     32 C          -1.0256    1.5350   48.3935 C.ar    1  UNL         0.0723
     33 CL         -0.1480    1.2332   49.8816 Cl      1  UNL        -0.0814
     34 CL         -0.3678    0.9716   44.4434 Cl      1  UNL        -0.0843
     35 C         -11.6110   -0.8921   54.7984 C.3     1  UNL        -0.0394
     36 H          -9.3648   -3.9795   57.5127 H       1  UNL         0.0623
     37 H         -11.2093   -3.2837   56.0139 H       1  UNL         0.0626
     38 H          -7.5724   -0.0911   57.1450 H       1  UNL         0.0627
     39 H          -7.5471   -2.3756   58.0786 H       1  UNL         0.0623
     40 H         -10.4491    1.3372   55.2769 H       1  UNL         0.0625
     41 H          -9.4061    4.1367   59.0523 H       1  UNL         0.0627
     42 H          -6.9954    4.6525   58.6313 H       1  UNL         0.0639
     43 H          -5.8187    3.4856   56.7379 H       1  UNL         0.0840
     44 H         -11.5831    2.5280   56.7381 H       1  UNL         0.0280
     45 H         -11.4345    3.0631   58.4159 H       1  UNL         0.0280
     46 H         -11.1397    1.3674   58.0075 H       1  UNL         0.0280
     47 H          -8.2976    0.3157   53.7620 H       1  UNL         0.1521
     48 H          -7.4172    4.0184   51.4699 H       1  UNL         0.0484
     49 H          -9.0939    3.7043   50.9925 H       1  UNL         0.0484
     50 H          -7.4570    3.7384   49.0660 H       1  UNL         0.0447
     51 H          -8.4693    2.2955   49.1847 H       1  UNL         0.0447
     52 H          -5.8959    0.0590   50.4402 H       1  UNL         0.0447
     53 H          -7.5880    0.2297   49.9836 H       1  UNL         0.0447
     54 H          -6.2340    1.3624   52.4710 H       1  UNL         0.0484
     55 H          -7.5111    0.1420   52.3770 H       1  UNL         0.0484
     56 H          -5.3642    3.2421   51.0078 H       1  UNL         0.0455
     57 H          -4.9827    3.4428   49.2929 H       1  UNL         0.0455
     58 H          -4.1763    0.8315   49.6858 H       1  UNL         0.0586
     59 H          -3.8001    1.5654   51.2734 H       1  UNL         0.0586
     60 H          -3.9729    2.8013   47.1878 H       1  UNL         0.0652
     61 H          -2.9136    2.1745   45.0465 H       1  UNL         0.0639
     62 H           0.5581    0.7296   47.1595 H       1  UNL         0.0655
     63 H         -12.3693   -1.6835   54.7523 H       1  UNL         0.0280
     64 H         -11.2688   -0.7072   53.7725 H       1  UNL         0.0280
     65 H         -12.1106    0.0143   55.1619 H       1  UNL         0.0280
@<TRIPOS>BOND
     1     1     2   ar
     2     1     6   ar
     3     1    36    1
     4     2     3   ar
     5     2    37    1
     6     3     4   ar
     7     3    35    1
     8     4     5   ar
     9     4     7    1
    10     5     6   ar
    11     5    38    1
    12     6    39    1
    13     7     8    1
    14     7    15    1
    15     7    40    1
    16     8     9   ar
    17     8    13   ar
    18     9    10   ar
    19     9    14    1
    20    10    11   ar
    21    10    41    1
    22    11    12   ar
    23    11    42    1
    24    12    13   ar
    25    12    43    1
    26    14    44    1
    27    14    45    1
    28    14    46    1
    29    15    16   am
    30    15    47    1
    31    16    17    2
    32    16    18   am
    33    18    19    1
    34    18    23    1
    35    19    20    1
    36    19    48    1
    37    19    49    1
    38    20    21    1
    39    20    50    1
    40    20    51    1
    41    21    22    1
    42    21    24    1
    43    22    23    1
    44    22    52    1
    45    22    53    1
    46    23    54    1
    47    23    55    1
    48    24    25    1
    49    24    56    1
    50    24    57    1
    51    25    26    1
    52    25    58    1
    53    25    59    1
    54    26    27    1
    55    27    28   ar
    56    27    32   ar
    57    28    29   ar
    58    28    60    1
    59    29    30   ar
    60    29    61    1
    61    30    31   ar
    62    30    34    1
    63    31    32   ar
    64    31    62    1
    65    32    33    1
    66    35    63    1
    67    35    64    1
    68    35    65    1
@<TRIPOS>SUBSTRUCTURE
     1 UNL         1 TEMP              0 ****  ****    0 ROOT


##########                                Name:    ZINC000508782983
##########                DOCK_Rotatable_Bonds:                   9
##########                         Heavy_Atoms:                  27
##########                    Molecular_Weight:             373.458
##########                DOCK_Rotatable_Bonds:                   9
##########                       Formal_Charge:          -0.0200006
##########                     HBond_Acceptors:                   9
##########                        HBond_Donors:                   2
##########                         Heavy_Atoms:                  27
##########                          Grid_Score:          -36.133331
##########                     Grid_vdw_energy:          -32.443356
##########                      Grid_es_energy:           -3.689975
##########           Internal_energy_repulsive:           18.010908

@<TRIPOS>MOLECULE
ZINC000508782983
 54 56 1 0 0
SMALL
USER_CHARGES


@<TRIPOS>ATOM
      1 C1        -10.5093    7.0274   49.1188 C.3     1  ZINC000508782983   -0.1500
      2 C2        -11.6346    6.0385   48.8074 C.3     1  ZINC000508782983   -0.1100
      3 C3        -12.3530    6.4702   47.5273 C.3     1  ZINC000508782983   -0.1500
      4 C4        -11.0455    4.6397   48.6146 C.3     1  ZINC000508782983    0.1000
      5 N5        -10.6938    4.0738   49.9193 N.pl3   1  ZINC000508782983   -0.4400
      6 C6        -11.5647    3.5705   50.8477 C.2     1  ZINC000508782983   -0.0400
      7 C7        -10.8236    3.1573   51.8935 C.2     1  ZINC000508782983   -0.0300
      8 N8         -9.5352    3.4017   51.6112 N.2     1  ZINC000508782983   -0.4700
      9 C9         -9.4496    3.9460   50.4283 C.2     1  ZINC000508782983    0.1700
     10 C10        -8.1740    4.3703   49.7470 C.3     1  ZINC000508782983    0.2100
     11 N11        -7.0256    3.9290   50.5423 N.am    1  ZINC000508782983   -0.6900
     12 C12        -6.5622    2.6697   50.4158 C.2     1  ZINC000508782983    0.5100
     13 O13        -7.0973    1.9010   49.6442 O.2     1  ZINC000508782983   -0.5100
     14 C14        -5.3895    2.2199   51.2257 C.2     1  ZINC000508782983    0.5100
     15 O15        -5.5591    1.5190   52.2016 O.2     1  ZINC000508782983   -0.5200
     16 N16        -4.1436    2.5930   50.8722 N.am    1  ZINC000508782983   -0.5800
     17 C17        -2.9752    2.1565   51.6517 C.3     1  ZINC000508782983    0.0800
     18 C18        -1.9493    1.5463   50.6908 C.3     1  ZINC000508782983    0.0400
     19 N19        -1.6568    2.5060   49.6177 N.3     1  ZINC000508782983   -0.5400
     20 C20        -0.5532    2.0306   48.7727 C.3     1  ZINC000508782983    0.1400
     21 C21        -0.9509    0.7382   48.1073 C.2     1  ZINC000508782983    0.2100
     22 N22        -1.3942    0.6164   46.8860 N.2     1  ZINC000508782983   -0.4900
     23 C23        -1.6467   -0.6764   46.6339 C.2     1  ZINC000508782983   -0.0300
     24 C24        -1.3485   -1.3828   47.7409 C.2     1  ZINC000508782983   -0.0500
     25 N25        -0.9020   -0.4865   48.6743 N.pl3   1  ZINC000508782983   -0.5600
     26 C26        -2.8533    2.7862   48.8128 C.3     1  ZINC000508782983    0.0400
     27 C27        -3.9158    3.4422   49.6932 C.3     1  ZINC000508782983    0.1100
     28 H28       -10.9290    8.0239   49.2560 H       1  ZINC000508782983    0.0700
     29 H29        -9.9975    6.7199   50.0307 H       1  ZINC000508782983    0.0600
     30 H30        -9.7999    7.0427   48.2914 H       1  ZINC000508782983    0.0600
     31 H31       -12.3441    6.0232   49.6346 H       1  ZINC000508782983    0.0800
     32 H32       -11.6294    6.5601   46.7172 H       1  ZINC000508782983    0.0600
     33 H33       -13.1035    5.7252   47.2630 H       1  ZINC000508782983    0.0600
     34 H34       -12.8381    7.4327   47.6898 H       1  ZINC000508782983    0.0600
     35 H35       -11.7809    3.9998   48.1273 H       1  ZINC000508782983    0.1000
     36 H36       -10.1518    4.7043   47.9938 H       1  ZINC000508782983    0.0900
     37 H37       -12.6397    3.5156   50.7588 H       1  ZINC000508782983    0.1800
     38 H38       -11.2004    2.7079   52.8003 H       1  ZINC000508782983    0.1700
     39 H39        -8.1242    3.9197   48.7558 H       1  ZINC000508782983    0.0900
     40 H40        -8.1556    5.4562   49.6539 H       1  ZINC000508782983    0.1100
     41 H41        -6.5985    4.5430   51.1600 H       1  ZINC000508782983    0.4200
     42 H42        -2.5347    3.0132   52.1619 H       1  ZINC000508782983    0.0800
     43 H43        -3.2815    1.4089   52.3833 H       1  ZINC000508782983    0.1400
     44 H44        -1.0325    1.3181   51.2344 H       1  ZINC000508782983    0.0900
     45 H45        -2.3544    0.6308   50.2596 H       1  ZINC000508782983    0.0400
     46 H46        -0.3308    2.7779   48.0111 H       1  ZINC000508782983    0.0900
     47 H47         0.3308    1.8651   49.3886 H       1  ZINC000508782983    0.0700
     48 H48        -2.0230   -1.0803   45.7056 H       1  ZINC000508782983    0.1700
     49 H49        -1.4400   -2.4515   47.8669 H       1  ZINC000508782983    0.1800
     50 H50        -0.6104   -0.6920   49.5762 H       1  ZINC000508782983    0.4200
     51 H51        -2.5921    3.4572   47.9945 H       1  ZINC000508782983    0.1100
     52 H52        -3.2458    1.8535   48.4078 H       1  ZINC000508782983    0.0400
     53 H53        -4.8435    3.5472   49.1308 H       1  ZINC000508782983    0.1000
     54 H54        -3.5680    4.4230   50.0175 H       1  ZINC000508782983    0.0800
@<TRIPOS>BOND
     1     1     2    1
     2     1    28    1
     3     1    29    1
     4     1    30    1
     5     2     3    1
     6     2     4    1
     7     2    31    1
     8     3    32    1
     9     3    33    1
    10     3    34    1
    11     4     5    1
    12     4    35    1
    13     4    36    1
    14     5     9    1
    15     5     6    1
    16     6     7    2
    17     6    37    1
    18     7     8    1
    19     7    38    1
    20     8     9    2
    21     9    10    1
    22    10    11    1
    23    10    39    1
    24    10    40    1
    25    11    12   am
    26    11    41    1
    27    12    13    2
    28    12    14    1
    29    14    15    2
    30    14    16   am
    31    16    27    1
    32    16    17    1
    33    17    18    1
    34    17    42    1
    35    17    43    1
    36    18    19    1
    37    18    44    1
    38    18    45    1
    39    19    20    1
    40    19    26    1
    41    20    21    1
    42    20    46    1
    43    20    47    1
    44    21    25    1
    45    21    22    2
    46    22    23    1
    47    23    24    2
    48    23    48    1
    49    24    25    1
    50    24    49    1
    51    25    50    1
    52    26    27    1
    53    26    51    1
    54    26    52    1
    55    27    53    1
    56    27    54    1
@<TRIPOS>SUBSTRUCTURE
     1 ZINC000508782983        1 TEMP              0 ****  ****    0 ROOT


##########                                Name:    ZINC000770814339
##########                DOCK_Rotatable_Bonds:                  13
##########                         Heavy_Atoms:                  28
##########                    Molecular_Weight:             409.423
##########                DOCK_Rotatable_Bonds:                  13
##########                       Formal_Charge:          -0.0100008
##########                     HBond_Acceptors:                  12
##########                        HBond_Donors:                   4
##########                         Heavy_Atoms:                  28
##########                          Grid_Score:          -36.127449
##########                     Grid_vdw_energy:          -33.763027
##########                      Grid_es_energy:           -2.364420
##########           Internal_energy_repulsive:            7.057873

@<TRIPOS>MOLECULE
ZINC000770814339
 47 48 1 0 0
SMALL
USER_CHARGES


@<TRIPOS>ATOM
      1 C1        -14.7853    0.8937   48.7116 C.3     1  ZINC000770814339   -0.1500
      2 C2        -14.4239    2.0191   49.6831 C.3     1  ZINC000770814339    0.0600
      3 O3        -13.0828    2.4952   49.3950 O.3     1  ZINC000770814339   -0.3500
      4 C4        -12.6158    3.4981   50.1550 C.2     1  ZINC000770814339    0.4700
      5 O5        -13.2732    3.9114   51.0806 O.2     1  ZINC000770814339   -0.4800
      6 C6        -11.2714    4.1088   49.8538 C.3     1  ZINC000770814339    0.0700
      7 O7        -10.2504    3.3682   50.5255 O.3     1  ZINC000770814339   -0.1800
      8 N8         -8.9482    3.8974   50.3547 N.2     1  ZINC000770814339   -0.2800
      9 C9         -7.9096    3.2065   50.7319 C.2     1  ZINC000770814339    0.1800
     10 C10        -6.5467    3.7610   50.5549 C.2     1  ZINC000770814339    0.5900
     11 O11        -6.4001    4.8846   50.1162 O.2     1  ZINC000770814339   -0.5100
     12 N12        -5.4698    3.0189   50.8805 N.am    1  ZINC000770814339   -0.7000
     13 C13        -4.1225    3.5676   50.7072 C.3     1  ZINC000770814339    0.1500
     14 C14        -3.3135    2.6458   49.8315 C.ar    1  ZINC000770814339   -0.0600
     15 C15        -3.6963    2.4238   48.5219 C.ar    1  ZINC000770814339   -0.1200
     16 C16        -2.9541    1.5782   47.7187 C.ar    1  ZINC000770814339   -0.0200
     17 C17        -1.8288    0.9552   48.2249 C.ar    1  ZINC000770814339   -0.6700
     18 S18        -0.8831   -0.1231   47.2013 S.o2    1  ZINC000770814339    2.7000
     19 N19        -0.9398   -1.6279   47.8902 N.am    1  ZINC000770814339   -1.2500
     20 O20        -1.5815   -0.2200   45.9676 O.2     1  ZINC000770814339   -0.9600
     21 O21         0.4661    0.3123   47.2986 O.2     1  ZINC000770814339   -0.9600
     22 C22        -1.4451    1.1783   49.5341 C.ar    1  ZINC000770814339   -0.0200
     23 C23        -2.1852    2.0268   50.3361 C.ar    1  ZINC000770814339   -0.1200
     24 C24        -8.0907    1.8713   51.3355 C.2     1  ZINC000770814339    0.0600
     25 C25        -8.6582    1.5968   52.5612 C.2     1  ZINC000770814339   -0.2000
     26 C26        -8.6318    0.2145   52.7399 C.2     1  ZINC000770814339    0.0400
     27 N27        -8.0805   -0.3343   51.6870 N.2     1  ZINC000770814339   -0.2600
     28 N28        -7.7331    0.6763   50.7822 N.pl3   1  ZINC000770814339   -0.4400
     29 H29       -15.7921    0.5363   48.9279 H       1  ZINC000770814339    0.0800
     30 H30       -14.7449    1.2694   47.6892 H       1  ZINC000770814339    0.0700
     31 H31       -14.0763    0.0737   48.8256 H       1  ZINC000770814339    0.0700
     32 H32       -15.1329    2.8392   49.5691 H       1  ZINC000770814339    0.0700
     33 H33       -14.4643    1.6434   50.7055 H       1  ZINC000770814339    0.0700
     34 H34       -11.0926    4.0815   48.7789 H       1  ZINC000770814339    0.1100
     35 H35       -11.2566    5.1427   50.1984 H       1  ZINC000770814339    0.1100
     36 H36        -5.5867    2.1215   51.2296 H       1  ZINC000770814339    0.4100
     37 H37        -4.1877    4.5496   50.2386 H       1  ZINC000770814339    0.0900
     38 H38        -3.6401    3.6606   51.6802 H       1  ZINC000770814339    0.0900
     39 H39        -4.5756    2.9106   48.1264 H       1  ZINC000770814339    0.1400
     40 H40        -3.2538    1.4042   46.6958 H       1  ZINC000770814339    0.1500
     41 H41        -0.6009   -1.7629   48.7889 H       1  ZINC000770814339    0.4200
     42 H42        -1.3119   -2.3743   47.3949 H       1  ZINC000770814339    0.4200
     43 H43        -0.5657    0.6918   49.9295 H       1  ZINC000770814339    0.1500
     44 H44        -1.8854    2.2012   51.3590 H       1  ZINC000770814339    0.1400
     45 H45        -9.0521    2.3221   53.2578 H       1  ZINC000770814339    0.1700
     46 H46        -9.0042   -0.3156   53.6040 H       1  ZINC000770814339    0.1900
     47 H47        -7.3088    0.5501   49.9191 H       1  ZINC000770814339    0.4500
@<TRIPOS>BOND
     1     1     2    1
     2     1    29    1
     3     1    30    1
     4     1    31    1
     5     2     3    1
     6     2    32    1
     7     2    33    1
     8     3     4    1
     9     4     5    2
    10     4     6    1
    11     6     7    1
    12     6    34    1
    13     6    35    1
    14     7     8    1
    15     8     9    2
    16     9    10    1
    17     9    24    1
    18    10    11    2
    19    10    12   am
    20    12    13    1
    21    12    36    1
    22    13    14    1
    23    13    37    1
    24    13    38    1
    25    14    23   ar
    26    14    15   ar
    27    15    16   ar
    28    15    39    1
    29    16    17   ar
    30    16    40    1
    31    17    18    1
    32    17    22   ar
    33    18    19   am
    34    18    20    2
    35    18    21    2
    36    19    41    1
    37    19    42    1
    38    22    23   ar
    39    22    43    1
    40    23    44    1
    41    24    28    1
    42    24    25    2
    43    25    26    1
    44    25    45    1
    45    26    27    2
    46    26    46    1
    47    27    28    1
    48    28    47    1
@<TRIPOS>SUBSTRUCTURE
     1 ZINC000770814339        1 TEMP              0 ****  ****    0 ROOT


##########                                Name:    ZINC000599797189
##########                DOCK_Rotatable_Bonds:                  13
##########                         Heavy_Atoms:                  23
##########                    Molecular_Weight:             329.313
##########                DOCK_Rotatable_Bonds:                  13
##########                       Formal_Charge:          0.00999949
##########                     HBond_Acceptors:                  11
##########                        HBond_Donors:                   3
##########                         Heavy_Atoms:                  23
##########                          Grid_Score:          -36.057953
##########                     Grid_vdw_energy:          -30.131426
##########                      Grid_es_energy:           -5.926527
##########           Internal_energy_repulsive:           35.445881

@<TRIPOS>MOLECULE
ZINC000599797189
 42 42 1 0 0
SMALL
USER_CHARGES


@<TRIPOS>ATOM
      1 C1        -14.3913   -2.9049   57.2924 C.3     1  ZINC000599797189   -0.1500
      2 C2        -13.0484   -3.0268   58.0155 C.3     1  ZINC000599797189    0.0600
      3 O3        -11.9803   -2.6041   57.1274 O.3     1  ZINC000599797189   -0.3600
      4 C4        -10.7229   -2.7505   57.5736 C.2     1  ZINC000599797189    0.4500
      5 O5        -10.4600   -3.6274   58.3621 O.2     1  ZINC000599797189   -0.4800
      6 C6         -9.6391   -1.8211   57.0912 C.3     1  ZINC000599797189    0.1500
      7 N7         -8.6984   -1.5595   58.1834 N.pl3   1  ZINC000599797189   -0.3800
      8 C8         -7.4873   -2.1164   58.3525 C.2     1  ZINC000599797189    0.2800
      9 N9         -6.9593   -1.6231   59.4435 N.2     1  ZINC000599797189   -0.5100
     10 C10        -7.8031   -0.7481   59.9986 C.2     1  ZINC000599797189    0.4700
     11 N11        -7.5713   -0.0271   61.1747 N.am    1  ZINC000599797189   -0.6400
     12 C12        -8.4305   -0.1291   62.2081 C.2     1  ZINC000599797189    0.7100
     13 O13        -9.4079   -0.8466   62.1176 O.2     1  ZINC000599797189   -0.5300
     14 N14        -8.2063    0.5643   63.3418 N.am    1  ZINC000599797189   -0.7300
     15 C15        -9.1392    0.4520   64.4658 C.3     1  ZINC000599797189    0.1100
     16 C16        -8.3720    0.5952   65.7817 C.3     1  ZINC000599797189    0.1100
     17 H17        -9.0766    0.6113   66.6132 H       1  ZINC000599797189    0.1200
     18 O18        -7.4791   -0.5100   65.9352 O.3     1  ZINC000599797189   -0.5400
     19 C19        -7.5716    1.8991   65.7662 C.3     1  ZINC000599797189   -0.1500
     20 C20        -6.8149    2.0395   67.0618 C.2     1  ZINC000599797189    0.4600
     21 O21        -7.3260    2.6001   68.0023 O.2     1  ZINC000599797189   -0.4900
     22 O22        -5.5731    1.5417   67.1711 O.3     1  ZINC000599797189   -0.3600
     23 C23        -5.0226    0.8806   66.0014 C.3     1  ZINC000599797189    0.0400
     24 N24        -8.8821   -0.6726   59.2567 N.2     1  ZINC000599797189   -0.3200
     25 H25       -15.1931   -3.2223   57.9591 H       1  ZINC000599797189    0.0800
     26 H26       -14.5525   -1.8680   56.9979 H       1  ZINC000599797189    0.0700
     27 H27       -14.3848   -3.5378   56.4049 H       1  ZINC000599797189    0.0700
     28 H28       -13.0549   -2.3939   58.9030 H       1  ZINC000599797189    0.0700
     29 H29       -12.8872   -4.0638   58.3099 H       1  ZINC000599797189    0.0700
     30 H30        -9.1092   -2.2825   56.2579 H       1  ZINC000599797189    0.1500
     31 H31       -10.0851   -0.8823   56.7631 H       1  ZINC000599797189    0.1300
     32 H32        -7.0290   -2.8455   57.7008 H       1  ZINC000599797189    0.2300
     33 H33        -6.7922    0.5462   61.2466 H       1  ZINC000599797189    0.4200
     34 H34        -7.4271    1.1376   63.4137 H       1  ZINC000599797189    0.4000
     35 H35        -9.8896    1.2394   64.3951 H       1  ZINC000599797189    0.0800
     36 H36        -9.6296   -0.5209   64.4351 H       1  ZINC000599797189    0.0800
     37 H37        -6.8246   -0.5880   65.2276 H       1  ZINC000599797189    0.3800
     38 H38        -6.8676    1.8834   64.9342 H       1  ZINC000599797189    0.1200
     39 H39        -8.2527    2.7421   65.6501 H       1  ZINC000599797189    0.1200
     40 H40        -5.6545    0.0345   65.7311 H       1  ZINC000599797189    0.0600
     41 H41        -4.9836    1.5850   65.1705 H       1  ZINC000599797189    0.0600
     42 H42        -4.0164    0.5258   66.2245 H       1  ZINC000599797189    0.1000
@<TRIPOS>BOND
     1     1     2    1
     2     1    25    1
     3     1    26    1
     4     1    27    1
     5     2     3    1
     6     2    28    1
     7     2    29    1
     8     3     4    1
     9     4     5    2
    10     4     6    1
    11     6     7    1
    12     6    30    1
    13     6    31    1
    14     7    24    1
    15     7     8    1
    16     8     9    2
    17     8    32    1
    18     9    10    1
    19    10    11    1
    20    10    24    2
    21    11    12   am
    22    11    33    1
    23    12    13    2
    24    12    14   am
    25    14    15    1
    26    14    34    1
    27    15    16    1
    28    15    35    1
    29    15    36    1
    30    16    17    1
    31    16    18    1
    32    16    19    1
    33    18    37    1
    34    19    20    1
    35    19    38    1
    36    19    39    1
    37    20    21    2
    38    20    22    1
    39    22    23    1
    40    23    40    1
    41    23    41    1
    42    23    42    1
@<TRIPOS>SUBSTRUCTURE
     1 ZINC000599797189        1 TEMP              0 ****  ****    0 ROOT


##########                                Name:    ZINC001109082135
##########                DOCK_Rotatable_Bonds:                   9
##########                         Heavy_Atoms:                  27
##########                    Molecular_Weight:             373.455
##########                DOCK_Rotatable_Bonds:                   9
##########                       Formal_Charge:          -0.0100003
##########                     HBond_Acceptors:                   8
##########                        HBond_Donors:                   3
##########                         Heavy_Atoms:                  27
##########                          Grid_Score:          -35.883591
##########                     Grid_vdw_energy:          -33.667450
##########                      Grid_es_energy:           -2.216139
##########           Internal_energy_repulsive:           22.948189

@<TRIPOS>MOLECULE
ZINC001109082135
 54 57 1 0 0
SMALL
USER_CHARGES


@<TRIPOS>ATOM
      1 C1        -19.0992   -3.4948   58.9347 C.3     1  ZINC001109082135   -0.1400
      2 C2        -19.6248   -2.2554   58.2078 C.3     1  ZINC001109082135   -0.1400
      3 C3        -18.9634   -2.1464   56.8580 C.2     1  ZINC001109082135    0.5100
      4 O4        -19.5550   -1.6322   55.9326 O.2     1  ZINC001109082135   -0.5400
      5 N5        -17.7144   -2.6204   56.6794 N.am    1  ZINC001109082135   -0.7200
      6 C6        -17.0721   -2.5160   55.3668 C.3     1  ZINC001109082135    0.1000
      7 C7        -15.5805   -2.3971   55.5455 C.2     1  ZINC001109082135    0.5100
      8 O8        -14.9250   -1.7491   54.7572 O.2     1  ZINC001109082135   -0.5300
      9 N9        -14.9749   -3.0107   56.5815 N.am    1  ZINC001109082135   -0.7100
     10 C10       -13.5250   -2.8936   56.7562 C.3     1  ZINC001109082135    0.1100
     11 H11       -13.0062   -3.1560   55.8342 H       1  ZINC001109082135    0.0900
     12 C12       -13.1444   -1.4622   57.2074 C.3     1  ZINC001109082135   -0.1600
     13 C13       -12.4806   -1.6837   58.6001 C.3     1  ZINC001109082135    0.0600
     14 H14       -11.8262   -0.8819   58.9424 H       1  ZINC001109082135    0.1300
     15 C15       -13.6573   -2.0461   59.5555 C.3     1  ZINC001109082135   -0.1200
     16 C16       -14.0557   -3.4755   59.1131 C.3     1  ZINC001109082135   -0.1100
     17 C17       -13.0399   -3.7919   57.9337 C.3     1  ZINC001109082135    0.0400
     18 H18       -12.8924   -4.8486   57.7104 H       1  ZINC001109082135    0.1200
     19 N19       -11.8262   -3.0253   58.3973 N.3     1  ZINC001109082135   -0.4800
     20 C20       -10.8027   -2.9733   57.3447 C.3     1  ZINC001109082135    0.0800
     21 C21        -9.4588   -2.6890   57.9646 C.2     1  ZINC001109082135    0.2000
     22 C22        -8.4822   -3.6380   57.9405 C.2     1  ZINC001109082135   -0.2900
     23 C23        -7.2360   -3.3392   58.5291 C.2     1  ZINC001109082135    0.5200
     24 O24        -6.3341   -4.1604   58.5290 O.2     1  ZINC001109082135   -0.5400
     25 N25        -7.0623   -2.1244   59.0923 N.am    1  ZINC001109082135   -0.6300
     26 C26        -8.0694   -1.2291   59.0829 C.2     1  ZINC001109082135    0.4300
     27 C27        -7.8592    0.1223   59.7159 C.3     1  ZINC001109082135   -0.1400
     28 C28        -9.0612    0.7765   60.4001 C.3     1  ZINC001109082135   -0.1400
     29 C29        -7.9192    0.2043   61.2424 C.3     1  ZINC001109082135   -0.1400
     30 N30        -9.2220   -1.5043   58.5332 N.2     1  ZINC001109082135   -0.5300
     31 H31       -18.0204   -3.4097   59.0646 H       1  ZINC001109082135    0.0600
     32 H32       -19.5776   -3.5736   59.9109 H       1  ZINC001109082135    0.0600
     33 H33       -19.3253   -4.3842   58.3465 H       1  ZINC001109082135    0.0600
     34 H34       -20.7037   -2.3405   58.0779 H       1  ZINC001109082135    0.1000
     35 H35       -19.3987   -1.3660   58.7960 H       1  ZINC001109082135    0.1000
     36 H36       -17.2408   -3.0305   57.4199 H       1  ZINC001109082135    0.4100
     37 H37       -17.2979   -3.4065   54.7801 H       1  ZINC001109082135    0.1000
     38 H38       -17.4474   -1.6341   54.8478 H       1  ZINC001109082135    0.1000
     39 H39       -15.4990   -3.5299   57.2113 H       1  ZINC001109082135    0.4000
     40 H40       -12.4346   -1.0162   56.5107 H       1  ZINC001109082135    0.0800
     41 H41       -14.0344   -0.8399   57.3011 H       1  ZINC001109082135    0.0800
     42 H42       -13.3234   -2.0448   60.5932 H       1  ZINC001109082135    0.0700
     43 H43       -14.4897   -1.3559   59.4183 H       1  ZINC001109082135    0.0700
     44 H44       -13.9193   -4.1825   59.9314 H       1  ZINC001109082135    0.0700
     45 H45       -15.0856   -3.4937   58.7564 H       1  ZINC001109082135    0.0700
     46 H46       -10.7676   -3.9305   56.8245 H       1  ZINC001109082135    0.1000
     47 H47       -11.0503   -2.1833   56.6359 H       1  ZINC001109082135    0.0700
     48 H48        -8.6585   -4.5992   57.4807 H       1  ZINC001109082135    0.1600
     49 H49        -6.2138   -1.8966   59.5035 H       1  ZINC001109082135    0.4200
     50 H50        -7.1534    0.7765   59.2040 H       1  ZINC001109082135    0.1300
     51 H51        -9.1464    1.8614   60.3385 H       1  ZINC001109082135    0.1100
     52 H52       -10.0039    0.2295   60.3924 H       1  ZINC001109082135    0.1100
     53 H53        -8.1107   -0.7191   61.7891 H       1  ZINC001109082135    0.1100
     54 H54        -7.2532    0.9129   61.7349 H       1  ZINC001109082135    0.1100
@<TRIPOS>BOND
     1     1     2    1
     2     1    31    1
     3     1    32    1
     4     1    33    1
     5     2     3    1
     6     2    34    1
     7     2    35    1
     8     3     4    2
     9     3     5   am
    10     5     6    1
    11     5    36    1
    12     6     7    1
    13     6    37    1
    14     6    38    1
    15     7     8    2
    16     7     9   am
    17     9    10    1
    18     9    39    1
    19    10    11    1
    20    10    17    1
    21    10    12    1
    22    12    13    1
    23    12    40    1
    24    12    41    1
    25    13    14    1
    26    13    19    1
    27    13    15    1
    28    15    16    1
    29    15    42    1
    30    15    43    1
    31    16    17    1
    32    16    44    1
    33    16    45    1
    34    17    18    1
    35    17    19    1
    36    19    20    1
    37    20    21    1
    38    20    46    1
    39    20    47    1
    40    21    30    1
    41    21    22    2
    42    22    23    1
    43    22    48    1
    44    23    24    2
    45    23    25   am
    46    25    26    1
    47    25    49    1
    48    26    27    1
    49    26    30    2
    50    27    29    1
    51    27    28    1
    52    27    50    1
    53    28    29    1
    54    28    51    1
    55    28    52    1
    56    29    53    1
    57    29    54    1
@<TRIPOS>SUBSTRUCTURE
     1 ZINC001109082135        1 TEMP              0 ****  ****    0 ROOT


##########                                Name:    ZINC001109848453
##########                DOCK_Rotatable_Bonds:                   8
##########                         Heavy_Atoms:                  24
##########                    Molecular_Weight:             328.337
##########                DOCK_Rotatable_Bonds:                   8
##########                       Formal_Charge:          0.00999966
##########                     HBond_Acceptors:                  11
##########                        HBond_Donors:                   2
##########                         Heavy_Atoms:                  24
##########                          Grid_Score:          -35.876373
##########                     Grid_vdw_energy:          -33.090179
##########                      Grid_es_energy:           -2.786193
##########           Internal_energy_repulsive:            8.488404

@<TRIPOS>MOLECULE
ZINC001109848453
 40 43 1 0 0
SMALL
USER_CHARGES


@<TRIPOS>ATOM
      1 O1         -7.0708    2.3078   49.3216 O.2     1  ZINC001109848453   -0.5000
      2 C2         -6.5753    1.7421   50.2731 C.2     1  ZINC001109848453    0.5000
      3 C3         -7.0744    0.3807   50.6839 C.3     1  ZINC001109848453    0.1100
      4 N4         -8.1832    0.5319   51.6294 N.pl3   1  ZINC001109848453   -0.3700
      5 C5         -8.3838    1.5541   52.4791 C.2     1  ZINC001109848453    0.2600
      6 N6         -9.4817    1.3154   53.1494 N.2     1  ZINC001109848453   -0.5400
      7 C7        -10.0076    0.1557   52.7571 C.2     1  ZINC001109848453    0.2000
      8 N8         -9.2509   -0.3594   51.8240 N.2     1  ZINC001109848453   -0.2900
      9 N9         -5.5746    2.3283   50.9597 N.am    1  ZINC001109848453   -0.7300
     10 C10        -5.0895    3.6517   50.5603 C.3     1  ZINC001109848453    0.1700
     11 H11        -5.7423    4.0606   49.7891 H       1  ZINC001109848453    0.1000
     12 C12        -3.6666    3.5290   50.0115 C.3     1  ZINC001109848453    0.1200
     13 N13        -3.6821    2.7180   48.7915 N.pl3   1  ZINC001109848453   -0.6800
     14 C14        -2.6627    1.8121   48.5490 C.2     1  ZINC001109848453    0.4900
     15 N15        -1.9675    1.3088   49.5506 N.2     1  ZINC001109848453   -0.5300
     16 C16        -0.9820    0.4341   49.3341 C.2     1  ZINC001109848453    0.1400
     17 C17        -0.6590    0.0320   48.0876 C.2     1  ZINC001109848453   -0.0500
     18 N18        -1.3469    0.5217   47.0123 N.pl3   1  ZINC001109848453   -0.1800
     19 N19        -1.2754    0.3354   45.7421 N.2     1  ZINC001109848453   -0.1000
     20 N20        -2.1704    1.0526   45.1561 N.2     1  ZINC001109848453   -0.0400
     21 N21        -2.8432    1.7207   46.0314 N.2     1  ZINC001109848453   -0.2600
     22 C22        -2.3616    1.4135   47.2254 C.2     1  ZINC001109848453    0.1000
     23 C23        -5.0891    4.5827   51.7745 C.3     1  ZINC001109848453   -0.1800
     24 C24        -5.7331    5.9606   51.6084 C.3     1  ZINC001109848453   -0.1700
     25 C25        -6.4361    4.8822   52.4354 C.3     1  ZINC001109848453   -0.1700
     26 H26        -7.4194   -0.1609   49.8031 H       1  ZINC001109848453    0.1300
     27 H27        -6.2656   -0.1749   51.1584 H       1  ZINC001109848453    0.1200
     28 H28        -7.7491    2.4208   52.5897 H       1  ZINC001109848453    0.2200
     29 H29       -10.9143   -0.2852   53.1443 H       1  ZINC001109848453    0.2200
     30 H30        -5.1758    1.8740   51.7183 H       1  ZINC001109848453    0.4000
     31 H31        -3.2784    4.5215   49.7830 H       1  ZINC001109848453    0.1000
     32 H32        -3.0296    3.0523   50.7565 H       1  ZINC001109848453    0.0900
     33 H33        -4.4062    2.8154   48.1534 H       1  ZINC001109848453    0.4200
     34 H34        -0.4311    0.0401   50.1755 H       1  ZINC001109848453    0.2000
     35 H35         0.1428   -0.6760   47.9390 H       1  ZINC001109848453    0.1900
     36 H36        -4.2157    4.5097   52.4226 H       1  ZINC001109848453    0.1100
     37 H37        -5.2834    6.7945   52.1472 H       1  ZINC001109848453    0.1000
     38 H38        -6.1570    6.2038   50.6342 H       1  ZINC001109848453    0.1000
     39 H39        -7.3225    4.4160   52.0052 H       1  ZINC001109848453    0.1200
     40 H40        -6.4489    5.0067   53.5181 H       1  ZINC001109848453    0.0900
@<TRIPOS>BOND
     1     1     2    2
     2     2     3    1
     3     2     9   am
     4     3     4    1
     5     3    26    1
     6     3    27    1
     7     4     8    1
     8     4     5    1
     9     5     6    2
    10     5    28    1
    11     6     7    1
    12     7     8    2
    13     7    29    1
    14     9    10    1
    15     9    30    1
    16    10    11    1
    17    10    12    1
    18    10    23    1
    19    12    13    1
    20    12    31    1
    21    12    32    1
    22    13    14    1
    23    13    33    1
    24    14    22    1
    25    14    15    2
    26    15    16    1
    27    16    17    2
    28    16    34    1
    29    17    18    1
    30    17    35    1
    31    18    22    1
    32    18    19    1
    33    19    20    2
    34    20    21    1
    35    21    22    2
    36    23    25    1
    37    23    24    1
    38    23    36    1
    39    24    25    1
    40    24    37    1
    41    24    38    1
    42    25    39    1
    43    25    40    1
@<TRIPOS>SUBSTRUCTURE
     1 ZINC001109848453        1 TEMP              0 ****  ****    0 ROOT


##########                                Name:    ZINC000434204837
##########                DOCK_Rotatable_Bonds:                   7
##########                         Heavy_Atoms:                  29
##########                    Molecular_Weight:             406.511
##########                DOCK_Rotatable_Bonds:                   7
##########                       Formal_Charge:          -0.0200002
##########                     HBond_Acceptors:                   8
##########                        HBond_Donors:                   0
##########                         Heavy_Atoms:                  29
##########                          Grid_Score:          -35.863121
##########                     Grid_vdw_energy:          -36.023994
##########                      Grid_es_energy:            0.160872
##########           Internal_energy_repulsive:           21.217171

@<TRIPOS>MOLECULE
ZINC000434204837
 51 54 1 0 0
SMALL
USER_CHARGES


@<TRIPOS>ATOM
      1 C1         -9.6229    3.3382   53.2069 C.3     1  ZINC000434204837   -0.1300
      2 C2         -8.8374    2.3562   52.3762 C.ar    1  ZINC000434204837   -0.0700
      3 C3         -8.2690    2.7599   51.1829 C.ar    1  ZINC000434204837   -0.1200
      4 C4         -7.5483    1.8590   50.4208 C.ar    1  ZINC000434204837   -0.1100
      5 C5         -7.3963    0.5549   50.8525 C.ar    1  ZINC000434204837   -0.1300
      6 C6         -7.9642    0.1513   52.0467 C.ar    1  ZINC000434204837   -0.0900
      7 C7         -8.6809    1.0530   52.8107 C.ar    1  ZINC000434204837   -0.1000
      8 C8         -9.3000    0.6131   54.1123 C.3     1  ZINC000434204837    0.0100
      9 C9         -8.3574    0.9222   55.2467 C.2     1  ZINC000434204837    0.2000
     10 N10        -8.2981    0.3061   56.4028 N.2     1  ZINC000434204837   -0.4600
     11 C11        -7.3167    0.9179   57.0893 C.2     1  ZINC000434204837    0.1700
     12 C12        -6.8563    0.5763   58.4829 C.3     1  ZINC000434204837   -0.0300
     13 S13        -8.1218   -0.4196   59.3092 S.3     1  ZINC000434204837    0.0900
     14 C14        -7.6592   -2.0259   58.7520 C.2     1  ZINC000434204837    0.2100
     15 N15        -6.4536   -2.5511   58.7933 N.2     1  ZINC000434204837   -0.3300
     16 N16        -6.4635   -3.7395   58.3069 N.2     1  ZINC000434204837   -0.0200
     17 N17        -7.6524   -4.0588   57.9248 N.2     1  ZINC000434204837   -0.0700
     18 N18        -8.4800   -2.9574   58.2045 N.pl3   1  ZINC000434204837   -0.3100
     19 C19        -9.8563   -2.8429   57.9622 C.ar    1  ZINC000434204837    0.1100
     20 C20       -10.7175   -2.4940   58.9938 C.ar    1  ZINC000434204837   -0.1100
     21 C21       -12.0728   -2.3815   58.7521 C.ar    1  ZINC000434204837   -0.0900
     22 C22       -12.5721   -2.6165   57.4842 C.ar    1  ZINC000434204837   -0.0600
     23 C23       -14.0513   -2.4930   57.2238 C.3     1  ZINC000434204837   -0.0600
     24 C24       -14.8150   -3.4227   58.1689 C.3     1  ZINC000434204837   -0.1500
     25 C25       -14.4923   -1.0476   57.4636 C.3     1  ZINC000434204837   -0.1500
     26 C26       -11.7168   -2.9642   56.4547 C.ar    1  ZINC000434204837   -0.1000
     27 C27       -10.3601   -3.0727   56.6891 C.ar    1  ZINC000434204837   -0.0900
     28 N28        -6.8380    1.8575   56.3298 N.2     1  ZINC000434204837   -0.3600
     29 O29        -7.4184    1.8730   55.2648 O.3     1  ZINC000434204837    0.0900
     30 H30        -8.9528    3.8433   53.9026 H       1  ZINC000434204837    0.0800
     31 H31       -10.0905    4.0746   52.5534 H       1  ZINC000434204837    0.0700
     32 H32       -10.3934    2.8069   53.7656 H       1  ZINC000434204837    0.0700
     33 H33        -8.3878    3.7789   50.8456 H       1  ZINC000434204837    0.1300
     34 H34        -7.1047    2.1743   49.4880 H       1  ZINC000434204837    0.1200
     35 H35        -6.8340   -0.1491   50.2569 H       1  ZINC000434204837    0.1300
     36 H36        -7.8456   -0.8678   52.3839 H       1  ZINC000434204837    0.1300
     37 H37       -10.2395    1.1441   54.2656 H       1  ZINC000434204837    0.1200
     38 H38        -9.4901   -0.4597   54.0800 H       1  ZINC000434204837    0.1200
     39 H39        -5.9261    0.0106   58.4299 H       1  ZINC000434204837    0.1300
     40 H40        -6.6914    1.4946   59.0464 H       1  ZINC000434204837    0.1400
     41 H41       -10.3281   -2.3110   59.9844 H       1  ZINC000434204837    0.1400
     42 H42       -12.7431   -2.1101   59.5541 H       1  ZINC000434204837    0.1400
     43 H43       -14.2629   -2.7708   56.1913 H       1  ZINC000434204837    0.0800
     44 H44       -14.6033   -3.1447   59.2015 H       1  ZINC000434204837    0.0600
     45 H45       -15.8848   -3.3333   57.9806 H       1  ZINC000434204837    0.0600
     46 H46       -14.5007   -4.4524   57.9981 H       1  ZINC000434204837    0.0600
     47 H47       -13.9483   -0.3852   56.7902 H       1  ZINC000434204837    0.0600
     48 H48       -15.5622   -0.9583   57.2752 H       1  ZINC000434204837    0.0600
     49 H49       -14.2808   -0.7698   58.4961 H       1  ZINC000434204837    0.0600
     50 H50       -12.1099   -3.1476   55.4656 H       1  ZINC000434204837    0.1400
     51 H51        -9.6926   -3.3442   55.8847 H       1  ZINC000434204837    0.1400
@<TRIPOS>BOND
     1     1     2    1
     2     1    30    1
     3     1    31    1
     4     1    32    1
     5     2     7   ar
     6     2     3   ar
     7     3     4   ar
     8     3    33    1
     9     4     5   ar
    10     4    34    1
    11     5     6   ar
    12     5    35    1
    13     6     7   ar
    14     6    36    1
    15     7     8    1
    16     8     9    1
    17     8    37    1
    18     8    38    1
    19     9    29    1
    20     9    10    2
    21    10    11    1
    22    11    12    1
    23    11    28    2
    24    12    13    1
    25    12    39    1
    26    12    40    1
    27    13    14    1
    28    14    18    1
    29    14    15    2
    30    15    16    1
    31    16    17    2
    32    17    18    1
    33    18    19    1
    34    19    27   ar
    35    19    20   ar
    36    20    21   ar
    37    20    41    1
    38    21    22   ar
    39    21    42    1
    40    22    23    1
    41    22    26   ar
    42    23    24    1
    43    23    25    1
    44    23    43    1
    45    24    44    1
    46    24    45    1
    47    24    46    1
    48    25    47    1
    49    25    48    1
    50    25    49    1
    51    26    27   ar
    52    26    50    1
    53    27    51    1
    54    28    29    1
@<TRIPOS>SUBSTRUCTURE
     1 ZINC000434204837        1 TEMP              0 ****  ****    0 ROOT


##########                                Name:    ZINC000508765459
##########                DOCK_Rotatable_Bonds:                  10
##########                         Heavy_Atoms:                  29
##########                    Molecular_Weight:               405.5
##########                DOCK_Rotatable_Bonds:                  10
##########                       Formal_Charge:         -6.4075e-07
##########                     HBond_Acceptors:                  10
##########                        HBond_Donors:                   1
##########                         Heavy_Atoms:                  29
##########                          Grid_Score:          -35.797310
##########                     Grid_vdw_energy:          -35.755520
##########                      Grid_es_energy:           -0.041788
##########           Internal_energy_repulsive:           16.037062

@<TRIPOS>MOLECULE
ZINC000508765459
 60 62 1 0 0
SMALL
USER_CHARGES


@<TRIPOS>ATOM
      1 C1          0.2346    3.6761   45.1960 C.3     1  ZINC000508765459    0.0300
      2 O2         -0.2006    2.3514   44.8833 O.3     1  ZINC000508765459   -0.3900
      3 C3          0.2839    1.3528   45.7834 C.3     1  ZINC000508765459    0.0500
      4 C4         -0.8648    0.4236   46.1806 C.3     1  ZINC000508765459    0.1100
      5 N5         -1.5300    0.9521   47.3741 N.am    1  ZINC000508765459   -0.5900
      6 C6         -1.0043    0.5563   48.6735 C.3     1  ZINC000508765459    0.1000
      7 C7         -1.4133    1.5604   49.7530 C.3     1  ZINC000508765459    0.1200
      8 N8         -2.8504    1.8422   49.5978 N.am    1  ZINC000508765459   -0.6400
      9 C9         -3.7305    1.5586   50.5783 C.2     1  ZINC000508765459    0.7100
     10 O10        -3.3430    1.0609   51.6178 O.2     1  ZINC000508765459   -0.5800
     11 N11        -5.0401    1.8266   50.4065 N.am    1  ZINC000508765459   -0.7400
     12 C12        -5.9966    1.5198   51.4731 C.3     1  ZINC000508765459    0.1400
     13 C13        -7.3657    2.1002   51.1127 C.3     1  ZINC000508765459   -0.1400
     14 C14        -8.0535    2.6096   52.3809 C.3     1  ZINC000508765459    0.0600
     15 N15        -8.1915    1.5057   53.3401 N.3     1  ZINC000508765459   -0.5400
     16 C16        -9.3938    0.7093   53.0572 C.3     1  ZINC000508765459    0.0500
     17 C17        -9.4584   -0.4739   54.0259 C.3     1  ZINC000508765459    0.0700
     18 N18        -9.4753    0.0277   55.4071 N.3     1  ZINC000508765459   -0.4600
     19 C19        -9.6053   -1.0125   56.3109 C.ar    1  ZINC000508765459    0.4900
     20 N20       -10.4115   -2.0234   56.0220 N.ar    1  ZINC000508765459   -0.5500
     21 C21       -10.5581   -3.0334   56.8635 C.ar    1  ZINC000508765459    0.1700
     22 C22        -9.8561   -3.0248   58.0586 C.ar    1  ZINC000508765459   -0.2600
     23 C23        -9.0214   -1.9519   58.3293 C.ar    1  ZINC000508765459    0.1700
     24 N24        -8.9164   -0.9763   57.4421 N.ar    1  ZINC000508765459   -0.5300
     25 C25        -8.2731    0.8240   55.6901 C.3     1  ZINC000508765459    0.0700
     26 C26        -8.2085    2.0071   54.7214 C.3     1  ZINC000508765459    0.0600
     27 C27        -3.2859    2.4462   48.3299 C.3     1  ZINC000508765459    0.1000
     28 C28        -2.5712    1.7662   47.1945 C.2     1  ZINC000508765459    0.5100
     29 O29        -2.9649    1.9604   46.0640 O.2     1  ZINC000508765459   -0.5400
     30 H30         1.3234    3.7174   45.1662 H       1  ZINC000508765459    0.0400
     31 H31        -0.1755    4.3749   44.4669 H       1  ZINC000508765459    0.0900
     32 H32        -0.1121    3.9466   46.1934 H       1  ZINC000508765459    0.0400
     33 H33         1.0677    0.7734   45.2955 H       1  ZINC000508765459    0.0500
     34 H34         0.6881    1.8325   46.6748 H       1  ZINC000508765459    0.0600
     35 H35        -1.5821    0.3621   45.3622 H       1  ZINC000508765459    0.1100
     36 H36        -0.4711   -0.5702   46.3941 H       1  ZINC000508765459    0.0900
     37 H37        -1.3935   -0.4282   48.9333 H       1  ZINC000508765459    0.0700
     38 H38         0.0834    0.5089   48.6212 H       1  ZINC000508765459    0.1000
     39 H39        -1.2261    1.1363   50.7395 H       1  ZINC000508765459    0.1200
     40 H40        -0.8428    2.4814   49.6337 H       1  ZINC000508765459    0.0800
     41 H41        -5.3494    2.2225   49.5768 H       1  ZINC000508765459    0.4000
     42 H42        -6.0788    0.4390   51.5876 H       1  ZINC000508765459    0.0700
     43 H43        -5.6506    1.9592   52.4087 H       1  ZINC000508765459    0.0700
     44 H44        -7.2375    2.9255   50.4123 H       1  ZINC000508765459    0.0700
     45 H45        -7.9791    1.3254   50.6529 H       1  ZINC000508765459    0.0800
     46 H46        -7.4542    3.4042   52.8252 H       1  ZINC000508765459    0.0800
     47 H47        -9.0406    2.9969   52.1282 H       1  ZINC000508765459    0.0400
     48 H48       -10.2800    1.3314   53.1833 H       1  ZINC000508765459    0.0500
     49 H49        -9.3519    0.3389   52.0330 H       1  ZINC000508765459    0.0900
     50 H50       -10.3645   -1.0495   53.8369 H       1  ZINC000508765459    0.0900
     51 H51        -8.5857   -1.1106   53.8810 H       1  ZINC000508765459    0.0600
     52 H52       -11.2169   -3.8544   56.6225 H       1  ZINC000508765459    0.1700
     53 H53        -9.9575   -3.8365   58.7639 H       1  ZINC000508765459    0.1500
     54 H54        -8.4608   -1.9145   59.2516 H       1  ZINC000508765459    0.1700
     55 H55        -8.3149    1.1945   56.7143 H       1  ZINC000508765459    0.1000
     56 H56        -7.3869    0.2019   55.5640 H       1  ZINC000508765459    0.0500
     57 H57        -7.3024    2.5827   54.9104 H       1  ZINC000508765459    0.0900
     58 H58        -9.0812    2.6439   54.8664 H       1  ZINC000508765459    0.0500
     59 H59        -4.3625    2.3190   48.2157 H       1  ZINC000508765459    0.1100
     60 H60        -3.0399    3.5081   48.3278 H       1  ZINC000508765459    0.1100
@<TRIPOS>BOND
     1     1     2    1
     2     1    30    1
     3     1    31    1
     4     1    32    1
     5     2     3    1
     6     3     4    1
     7     3    33    1
     8     3    34    1
     9     4     5    1
    10     4    35    1
    11     4    36    1
    12     5    28   am
    13     5     6    1
    14     6     7    1
    15     6    37    1
    16     6    38    1
    17     7     8    1
    18     7    39    1
    19     7    40    1
    20     8     9   am
    21     8    27    1
    22     9    10    2
    23     9    11   am
    24    11    12    1
    25    11    41    1
    26    12    13    1
    27    12    42    1
    28    12    43    1
    29    13    14    1
    30    13    44    1
    31    13    45    1
    32    14    15    1
    33    14    46    1
    34    14    47    1
    35    15    26    1
    36    15    16    1
    37    16    17    1
    38    16    48    1
    39    16    49    1
    40    17    18    1
    41    17    50    1
    42    17    51    1
    43    18    19    1
    44    18    25    1
    45    19    24   ar
    46    19    20   ar
    47    20    21   ar
    48    21    22   ar
    49    21    52    1
    50    22    23   ar
    51    22    53    1
    52    23    24   ar
    53    23    54    1
    54    25    26    1
    55    25    55    1
    56    25    56    1
    57    26    57    1
    58    26    58    1
    59    27    28    1
    60    27    59    1
    61    27    60    1
    62    28    29    2
@<TRIPOS>SUBSTRUCTURE
     1 ZINC000508765459        1 TEMP              0 ****  ****    0 ROOT


##########                                Name:    ZINC000050607728
##########                DOCK_Rotatable_Bonds:                  10
##########                         Heavy_Atoms:                  31
##########                    Molecular_Weight:             416.476
##########                DOCK_Rotatable_Bonds:                  10
##########                       Formal_Charge:          -0.0199995
##########                     HBond_Acceptors:                   6
##########                        HBond_Donors:                   1
##########                         Heavy_Atoms:                  31
##########                          Grid_Score:          -35.760864
##########                     Grid_vdw_energy:          -34.997246
##########                      Grid_es_energy:           -0.763620
##########           Internal_energy_repulsive:           14.162671

@<TRIPOS>MOLECULE
ZINC000050607728
 55 57 1 0 0
SMALL
USER_CHARGES


@<TRIPOS>ATOM
      1 C1         -0.4898    0.9215   44.5527 C.3     1  ZINC000050607728    0.0800
      2 N2         -0.9175    1.3924   45.8723 N.am    1  ZINC000050607728   -0.6200
      3 C3         -0.6380    2.7702   46.2843 C.3     1  ZINC000050607728    0.0700
      4 C4         -1.5680    0.5582   46.7073 C.2     1  ZINC000050607728    0.5600
      5 O5         -1.8000   -0.5850   46.3655 O.2     1  ZINC000050607728   -0.5300
      6 C6         -1.9996    1.0335   48.0391 C.ar    1  ZINC000050607728   -0.1400
      7 C7         -1.2841    0.6669   49.1799 C.ar    1  ZINC000050607728   -0.0800
      8 C8         -1.6919    1.1143   50.4197 C.ar    1  ZINC000050607728   -0.1300
      9 C9         -2.8077    1.9240   50.5336 C.ar    1  ZINC000050607728   -0.0700
     10 C10        -3.5220    2.2907   49.4065 C.ar    1  ZINC000050607728   -0.1100
     11 C11        -4.7367    3.1727   49.5401 C.3     1  ZINC000050607728    0.1100
     12 O12        -5.9360    2.3560   49.4876 O.3     1  ZINC000050607728   -0.3400
     13 C13        -6.3443    1.7982   50.6382 C.2     1  ZINC000050607728    0.4700
     14 O14        -6.0510    0.6540   50.8924 O.2     1  ZINC000050607728   -0.5000
     15 C15        -7.1686    2.5992   51.6129 C.3     1  ZINC000050607728    0.2000
     16 H16        -6.5830    3.4438   51.9759 H       1  ZINC000050607728    0.1400
     17 N17        -8.3742    3.0929   50.9427 N.am    1  ZINC000050607728   -0.7100
     18 C18        -8.3465    4.2700   50.2870 C.2     1  ZINC000050607728    0.5700
     19 O19        -7.3209    4.9213   50.2502 O.2     1  ZINC000050607728   -0.5200
     20 C20        -9.5636    4.7691   49.6121 C.ar    1  ZINC000050607728   -0.1400
     21 C21        -9.5364    5.9844   48.9262 C.ar    1  ZINC000050607728   -0.0800
     22 C22       -10.6755    6.4441   48.2982 C.ar    1  ZINC000050607728   -0.1300
     23 C23       -11.8431    5.7036   48.3475 C.ar    1  ZINC000050607728   -0.0900
     24 C24       -11.8769    4.4982   49.0261 C.ar    1  ZINC000050607728   -0.1300
     25 C25       -10.7432    4.0242   49.6532 C.ar    1  ZINC000050607728   -0.0600
     26 C26        -7.5625    1.7245   52.7752 C.ar    1  ZINC000050607728   -0.1000
     27 C27        -8.4914    0.7164   52.5979 C.ar    1  ZINC000050607728   -0.1000
     28 C28        -8.8527   -0.0859   53.6640 C.ar    1  ZINC000050607728   -0.1200
     29 C29        -8.2849    0.1197   54.9074 C.ar    1  ZINC000050607728   -0.1100
     30 C30        -7.3553    1.1274   55.0846 C.ar    1  ZINC000050607728   -0.1200
     31 C31        -6.9907    1.9269   54.0174 C.ar    1  ZINC000050607728   -0.0800
     32 C32        -3.1213    1.8554   48.1605 C.ar    1  ZINC000050607728   -0.0400
     33 H33         0.5143    0.5032   44.6240 H       1  ZINC000050607728    0.0600
     34 H34        -1.1787    0.1539   44.1999 H       1  ZINC000050607728    0.0800
     35 H35        -0.4866    1.7566   43.8522 H       1  ZINC000050607728    0.0700
     36 H36        -1.4251    3.4270   45.9140 H       1  ZINC000050607728    0.0600
     37 H37        -0.6019    2.8239   47.3724 H       1  ZINC000050607728    0.0800
     38 H38         0.3213    3.0850   45.8731 H       1  ZINC000050607728    0.0700
     39 H39        -0.4131    0.0343   49.0923 H       1  ZINC000050607728    0.1400
     40 H40        -1.1390    0.8314   51.3033 H       1  ZINC000050607728    0.1400
     41 H41        -3.1230    2.2712   51.5064 H       1  ZINC000050607728    0.1300
     42 H42        -4.6987    3.7017   50.4923 H       1  ZINC000050607728    0.0900
     43 H43        -4.7528    3.8948   48.7237 H       1  ZINC000050607728    0.0900
     44 H44        -9.1923    2.5726   50.9710 H       1  ZINC000050607728    0.4100
     45 H45        -8.6258    6.5638   48.8875 H       1  ZINC000050607728    0.1300
     46 H46       -10.6558    7.3843   47.7671 H       1  ZINC000050607728    0.1300
     47 H47       -12.7322    6.0680   47.8545 H       1  ZINC000050607728    0.1300
     48 H48       -12.7917    3.9251   49.0612 H       1  ZINC000050607728    0.1300
     49 H49       -10.7709    3.0830   50.1822 H       1  ZINC000050607728    0.1400
     50 H50        -8.9351    0.5556   51.6264 H       1  ZINC000050607728    0.1200
     51 H51        -9.5790   -0.8733   53.5256 H       1  ZINC000050607728    0.1200
     52 H52        -8.5677   -0.5066   55.7405 H       1  ZINC000050607728    0.1200
     53 H53        -6.9118    1.2884   56.0562 H       1  ZINC000050607728    0.1300
     54 H54        -6.2646    2.7142   54.1558 H       1  ZINC000050607728    0.1300
     55 H55        -3.6795    2.1426   47.2816 H       1  ZINC000050607728    0.1300
@<TRIPOS>BOND
     1     1     2    1
     2     1    33    1
     3     1    34    1
     4     1    35    1
     5     2     3    1
     6     2     4   am
     7     3    36    1
     8     3    37    1
     9     3    38    1
    10     4     5    2
    11     4     6    1
    12     6    32   ar
    13     6     7   ar
    14     7     8   ar
    15     7    39    1
    16     8     9   ar
    17     8    40    1
    18     9    10   ar
    19     9    41    1
    20    10    11    1
    21    10    32   ar
    22    11    12    1
    23    11    42    1
    24    11    43    1
    25    12    13    1
    26    13    14    2
    27    13    15    1
    28    15    16    1
    29    15    17    1
    30    15    26    1
    31    17    18   am
    32    17    44    1
    33    18    19    2
    34    18    20    1
    35    20    25   ar
    36    20    21   ar
    37    21    22   ar
    38    21    45    1
    39    22    23   ar
    40    22    46    1
    41    23    24   ar
    42    23    47    1
    43    24    25   ar
    44    24    48    1
    45    25    49    1
    46    26    31   ar
    47    26    27   ar
    48    27    28   ar
    49    27    50    1
    50    28    29   ar
    51    28    51    1
    52    29    30   ar
    53    29    52    1
    54    30    31   ar
    55    30    53    1
    56    31    54    1
    57    32    55    1
@<TRIPOS>SUBSTRUCTURE
     1 ZINC000050607728        1 TEMP              0 ****  ****    0 ROOT


##########                                Name:    ZINC001596273020
##########                DOCK_Rotatable_Bonds:                  11
##########                         Heavy_Atoms:                  25
##########                    Molecular_Weight:             355.478
##########                DOCK_Rotatable_Bonds:                  11
##########                       Formal_Charge:          -0.0499996
##########                     HBond_Acceptors:                   7
##########                        HBond_Donors:                   2
##########                         Heavy_Atoms:                  25
##########                          Grid_Score:          -35.744164
##########                     Grid_vdw_energy:          -31.333233
##########                      Grid_es_energy:           -4.410932
##########           Internal_energy_repulsive:           21.840361

@<TRIPOS>MOLECULE
ZINC001596273020
 58 59 1 0 0
SMALL
USER_CHARGES


@<TRIPOS>ATOM
      1 C1        -11.1147    1.2357   63.3666 C.3     1  ZINC001596273020   -0.1900
      2 C2        -10.0476    0.3268   62.7533 C.3     1  ZINC001596273020   -0.0200
      3 N3         -8.7861    1.0689   62.6267 N.4     1  ZINC001596273020   -0.3900
      4 H4         -8.9361    2.0332   62.8831 H       1  ZINC001596273020    0.4300
      5 C5         -7.7782    0.4767   63.5163 C.3     1  ZINC001596273020   -0.0100
      6 C6         -8.2096    0.6646   64.9721 C.3     1  ZINC001596273020   -0.1900
      7 C7         -8.3145    0.9994   61.2373 C.3     1  ZINC001596273020   -0.0100
      8 C8         -8.0268   -0.4574   60.8685 C.3     1  ZINC001596273020    0.0300
      9 O9         -7.5003   -0.5176   59.5413 O.3     1  ZINC001596273020   -0.3900
     10 C10        -6.8344   -1.7444   59.2354 C.3     1  ZINC001596273020    0.0500
     11 C11        -7.7069   -2.5772   58.2940 C.3     1  ZINC001596273020    0.1400
     12 N12        -9.0475   -1.9907   58.2238 N.am    1  ZINC001596273020   -0.7500
     13 C13        -9.9127   -2.3988   57.2744 C.2     1  ZINC001596273020    0.7200
     14 O14        -9.5801   -3.2526   56.4753 O.2     1  ZINC001596273020   -0.6000
     15 N15       -11.1466   -1.8604   57.2109 N.am    1  ZINC001596273020   -0.6300
     16 C16       -12.2310   -2.1835   56.2510 C.3     1  ZINC001596273020    0.1100
     17 C17       -13.5102   -2.1981   57.1367 C.3     1  ZINC001596273020   -0.0800
     18 H18       -14.3649   -1.8542   56.5542 H       1  ZINC001596273020    0.1200
     19 C19       -13.7384   -3.6280   57.5845 C.3     1  ZINC001596273020   -0.1000
     20 C20       -14.4319   -3.7210   58.9364 C.3     1  ZINC001596273020   -0.1200
     21 C21       -13.5613   -2.9922   59.9686 C.3     1  ZINC001596273020   -0.1200
     22 C22       -13.6036   -1.5035   59.6389 C.3     1  ZINC001596273020   -0.0800
     23 C23       -13.2049   -1.2011   58.2328 C.3     1  ZINC001596273020   -0.1400
     24 C24       -13.9567    0.0488   57.8541 C.2     1  ZINC001596273020    0.5000
     25 O25       -14.4021    0.7791   58.7228 O.co2   1  ZINC001596273020   -0.6900
     26 O26       -14.1197    0.3297   56.6788 O.co2   1  ZINC001596273020   -0.6900
     27 C27       -11.7286   -0.8159   58.0886 C.3     1  ZINC001596273020    0.1600
     28 H28       -10.8403    1.4763   64.3937 H       1  ZINC001596273020    0.0800
     29 H29       -11.1871    2.1548   62.7851 H       1  ZINC001596273020    0.0800
     30 H30       -12.0768    0.7234   63.3580 H       1  ZINC001596273020    0.1000
     31 H31        -9.8960   -0.5405   63.3959 H       1  ZINC001596273020    0.1300
     32 H32       -10.3750   -0.0040   61.7676 H       1  ZINC001596273020    0.1300
     33 H33        -7.6828   -0.5873   63.2999 H       1  ZINC001596273020    0.1300
     34 H34        -6.8184    0.9676   63.3555 H       1  ZINC001596273020    0.1300
     35 H35        -8.1981    1.7259   65.2204 H       1  ZINC001596273020    0.0800
     36 H36        -9.2171    0.2709   65.1062 H       1  ZINC001596273020    0.0800
     37 H37        -7.5207    0.1307   65.6269 H       1  ZINC001596273020    0.1000
     38 H38        -9.0812    1.3978   60.5729 H       1  ZINC001596273020    0.1400
     39 H39        -7.4024    1.5874   61.1334 H       1  ZINC001596273020    0.1400
     40 H40        -7.2999   -0.8722   61.5668 H       1  ZINC001596273020    0.1000
     41 H41        -8.9501   -1.0343   60.9196 H       1  ZINC001596273020    0.0700
     42 H42        -5.8811   -1.5297   58.7525 H       1  ZINC001596273020    0.0700
     43 H43        -6.6584   -2.3015   60.1556 H       1  ZINC001596273020    0.0700
     44 H44        -7.2617   -2.5864   57.2991 H       1  ZINC001596273020    0.0900
     45 H45        -7.7760   -3.5978   58.6706 H       1  ZINC001596273020    0.0700
     46 H46        -9.3125   -1.3087   58.8606 H       1  ZINC001596273020    0.3900
     47 H47       -12.3052   -1.4138   55.4827 H       1  ZINC001596273020    0.0700
     48 H48       -12.0653   -3.1620   55.8003 H       1  ZINC001596273020    0.0600
     49 H49       -14.3509   -4.1360   56.8397 H       1  ZINC001596273020    0.0500
     50 H50       -12.7750   -4.1340   57.6483 H       1  ZINC001596273020    0.0400
     51 H51       -15.4120   -3.2471   58.8809 H       1  ZINC001596273020    0.0700
     52 H52       -14.5436   -4.7670   59.2217 H       1  ZINC001596273020    0.0500
     53 H53       -13.9567   -3.1604   60.9704 H       1  ZINC001596273020    0.0600
     54 H54       -12.5353   -3.3551   59.9093 H       1  ZINC001596273020    0.0500
     55 H55       -14.6171   -1.1374   59.8031 H       1  ZINC001596273020    0.0600
     56 H56       -12.9301   -0.9763   60.3146 H       1  ZINC001596273020    0.0600
     57 H57       -11.2390   -0.8166   59.0624 H       1  ZINC001596273020    0.0700
     58 H58       -11.6356    0.1621   57.6163 H       1  ZINC001596273020    0.0700
@<TRIPOS>BOND
     1     1     2    1
     2     1    28    1
     3     1    29    1
     4     1    30    1
     5     2     3    1
     6     2    31    1
     7     2    32    1
     8     3     4    1
     9     3     5    1
    10     3     7    1
    11     5     6    1
    12     5    33    1
    13     5    34    1
    14     6    35    1
    15     6    36    1
    16     6    37    1
    17     7     8    1
    18     7    38    1
    19     7    39    1
    20     8     9    1
    21     8    40    1
    22     8    41    1
    23     9    10    1
    24    10    11    1
    25    10    42    1
    26    10    43    1
    27    11    12    1
    28    11    44    1
    29    11    45    1
    30    12    13   am
    31    12    46    1
    32    13    14    2
    33    13    15   am
    34    15    27    1
    35    15    16    1
    36    16    17    1
    37    16    47    1
    38    16    48    1
    39    17    18    1
    40    17    23    1
    41    17    19    1
    42    19    20    1
    43    19    49    1
    44    19    50    1
    45    20    21    1
    46    20    51    1
    47    20    52    1
    48    21    22    1
    49    21    53    1
    50    21    54    1
    51    22    23    1
    52    22    55    1
    53    22    56    1
    54    23    24    1
    55    23    27    1
    56    24    25   ar
    57    24    26   ar
    58    27    57    1
    59    27    58    1
@<TRIPOS>SUBSTRUCTURE
     1 ZINC001596273020        1 TEMP              0 ****  ****    0 ROOT


##########                                Name:    ZINC000671418508
##########                DOCK_Rotatable_Bonds:                   9
##########                         Heavy_Atoms:                  28
##########                    Molecular_Weight:             405.884
##########                DOCK_Rotatable_Bonds:                   9
##########                       Formal_Charge:         -1.3411e-07
##########                     HBond_Acceptors:                   9
##########                        HBond_Donors:                   2
##########                         Heavy_Atoms:                  28
##########                          Grid_Score:          -35.695469
##########                     Grid_vdw_energy:          -34.694683
##########                      Grid_es_energy:           -1.000787
##########           Internal_energy_repulsive:           17.876427

@<TRIPOS>MOLECULE
ZINC000671418508
 52 54 1 0 0
SMALL
USER_CHARGES


@<TRIPOS>ATOM
      1 C1         -8.1569   -3.2574   58.1895 C.3     1  ZINC000671418508    0.1000
      2 N2         -7.8585   -1.8237   58.1473 N.pl3   1  ZINC000671418508   -0.3700
      3 C3         -8.0667   -1.0000   57.0988 C.2     1  ZINC000671418508    0.0800
      4 C4         -7.6611    0.2391   57.4608 C.2     1  ZINC000671418508   -0.2700
      5 C5         -7.7103    1.4750   56.5998 C.3     1  ZINC000671418508    0.2000
      6 N6         -7.4568    1.1083   55.2043 N.am    1  ZINC000671418508   -0.6900
      7 C7         -7.9908    1.8413   54.2073 C.2     1  ZINC000671418508    0.5100
      8 O8         -8.6826    2.8042   54.4655 O.2     1  ZINC000671418508   -0.5100
      9 C9         -7.7306    1.4683   52.7837 C.2     1  ZINC000671418508    0.5100
     10 O10        -8.4517    0.6684   52.2245 O.2     1  ZINC000671418508   -0.5200
     11 N11        -6.6951    2.0205   52.1207 N.am    1  ZINC000671418508   -0.5800
     12 C12        -5.8052    2.9874   52.7814 C.3     1  ZINC000671418508    0.0800
     13 C13        -4.3557    2.5363   52.5728 C.3     1  ZINC000671418508    0.0400
     14 N14        -4.1078    2.3438   51.1377 N.3     1  ZINC000671418508   -0.5200
     15 C15        -2.6862    2.0783   50.8801 C.3     1  ZINC000671418508    0.1300
     16 H16        -2.3605    1.2290   51.4805 H       1  ZINC000671418508    0.0600
     17 C17        -1.8613    3.3121   51.2522 C.3     1  ZINC000671418508    0.0900
     18 O18        -2.5716    4.4923   50.8719 O.3     1  ZINC000671418508   -0.5500
     19 C19        -2.4904    1.7652   49.4191 C.ar    1  ZINC000671418508   -0.0800
     20 C20        -3.0640    2.5744   48.4561 C.ar    1  ZINC000671418508   -0.0600
     21 C21        -2.8849    2.2876   47.1159 C.ar    1  ZINC000671418508   -0.1200
     22 C22        -2.1312    1.1905   46.7382 C.ar    1  ZINC000671418508   -0.0300
     23 Cl23       -1.9053    0.8301   45.0552 Cl      1  ZINC000671418508   -0.0700
     24 C24        -1.5574    0.3811   47.7023 C.ar    1  ZINC000671418508   -0.1200
     25 C25        -1.7326    0.6721   49.0421 C.ar    1  ZINC000671418508   -0.1100
     26 C26        -4.9510    1.2727   50.5903 C.3     1  ZINC000671418508    0.0400
     27 C27        -6.4213    1.6674   50.7195 C.3     1  ZINC000671418508    0.1100
     28 C28        -7.1888    0.1703   58.7755 C.2     1  ZINC000671418508    0.0700
     29 N29        -7.3123   -1.0645   59.1901 N.2     1  ZINC000671418508   -0.2900
     30 H30        -9.1765   -3.4060   58.5451 H       1  ZINC000671418508    0.0800
     31 H31        -8.0557   -3.6792   57.1895 H       1  ZINC000671418508    0.0900
     32 H32        -7.4605   -3.7537   58.8654 H       1  ZINC000671418508    0.0900
     33 H33        -8.4823   -1.2798   56.1420 H       1  ZINC000671418508    0.1800
     34 H34        -8.6948    1.9356   56.6814 H       1  ZINC000671418508    0.0800
     35 H35        -6.9500    2.1810   56.9339 H       1  ZINC000671418508    0.0800
     36 H36        -6.9048    0.3379   54.9978 H       1  ZINC000671418508    0.4100
     37 H37        -5.9480    3.9751   52.3431 H       1  ZINC000671418508    0.0800
     38 H38        -6.0284    3.0211   53.8478 H       1  ZINC000671418508    0.1400
     39 H39        -3.6786    3.2977   52.9600 H       1  ZINC000671418508    0.0900
     40 H40        -4.1875    1.5973   53.1002 H       1  ZINC000671418508    0.0400
     41 H41        -1.6888    3.3228   52.3284 H       1  ZINC000671418508    0.0500
     42 H42        -0.9045    3.2802   50.7310 H       1  ZINC000671418508    0.0500
     43 H43        -2.6069    4.6395   49.9168 H       1  ZINC000671418508    0.3800
     44 H44        -3.6526    3.4305   48.7510 H       1  ZINC000671418508    0.1400
     45 H45        -3.3333    2.9196   46.3637 H       1  ZINC000671418508    0.1300
     46 H46        -0.9694   -0.4757   47.4081 H       1  ZINC000671418508    0.1300
     47 H47        -1.2844    0.0405   49.7949 H       1  ZINC000671418508    0.1300
     48 H48        -4.7056    1.1176   49.5397 H       1  ZINC000671418508    0.0900
     49 H49        -4.7745    0.3513   51.1453 H       1  ZINC000671418508    0.0400
     50 H50        -7.0527    0.8305   50.4210 H       1  ZINC000671418508    0.1000
     51 H51        -6.6263    2.5291   50.0842 H       1  ZINC000671418508    0.0800
     52 H52        -6.7950    0.9951   59.3508 H       1  ZINC000671418508    0.1900
@<TRIPOS>BOND
     1     1     2    1
     2     1    30    1
     3     1    31    1
     4     1    32    1
     5     2    29    1
     6     2     3    1
     7     3     4    2
     8     3    33    1
     9     4     5    1
    10     4    28    1
    11     5     6    1
    12     5    34    1
    13     5    35    1
    14     6     7   am
    15     6    36    1
    16     7     8    2
    17     7     9    1
    18     9    10    2
    19     9    11   am
    20    11    27    1
    21    11    12    1
    22    12    13    1
    23    12    37    1
    24    12    38    1
    25    13    14    1
    26    13    39    1
    27    13    40    1
    28    14    15    1
    29    14    26    1
    30    15    16    1
    31    15    17    1
    32    15    19    1
    33    17    18    1
    34    17    41    1
    35    17    42    1
    36    18    43    1
    37    19    25   ar
    38    19    20   ar
    39    20    21   ar
    40    20    44    1
    41    21    22   ar
    42    21    45    1
    43    22    23    1
    44    22    24   ar
    45    24    25   ar
    46    24    46    1
    47    25    47    1
    48    26    27    1
    49    26    48    1
    50    26    49    1
    51    27    50    1
    52    27    51    1
    53    28    29    2
    54    28    52    1
@<TRIPOS>SUBSTRUCTURE
     1 ZINC000671418508        1 TEMP              0 ****  ****    0 ROOT


##########                                Name:    ZINC000583220082
##########                DOCK_Rotatable_Bonds:                   9
##########                         Heavy_Atoms:                  29
##########                    Molecular_Weight:             417.492
##########                DOCK_Rotatable_Bonds:                   9
##########                       Formal_Charge:          -0.0400006
##########                     HBond_Acceptors:                  11
##########                        HBond_Donors:                   3
##########                         Heavy_Atoms:                  29
##########                          Grid_Score:          -35.672310
##########                     Grid_vdw_energy:          -35.276047
##########                      Grid_es_energy:           -0.396265
##########           Internal_energy_repulsive:           16.593296

@<TRIPOS>MOLECULE
ZINC000583220082
 52 54 1 0 0
SMALL
USER_CHARGES


@<TRIPOS>ATOM
      1 C1         -8.3577   -4.8486   57.9509 C.3     1  ZINC000583220082    0.0800
      2 N2         -9.1134   -3.6023   57.8029 N.am    1  ZINC000583220082   -0.6300
      3 C3        -10.5628   -3.6449   57.5940 C.3     1  ZINC000583220082    0.0800
      4 C4         -8.4752   -2.4165   57.8591 C.2     1  ZINC000583220082    0.5100
      5 O5         -7.2754   -2.3813   58.0336 O.2     1  ZINC000583220082   -0.5300
      6 C6         -9.2522   -1.1346   57.7051 C.3     1  ZINC000583220082   -0.1000
      7 C7         -8.4725   -0.1750   56.8435 C.ar    1  ZINC000583220082   -0.0800
      8 C8         -8.7087   -0.1223   55.4819 C.ar    1  ZINC000583220082   -0.0800
      9 C9         -7.9961    0.7559   54.6894 C.ar    1  ZINC000583220082   -0.1400
     10 C10        -7.0415    1.5875   55.2616 C.ar    1  ZINC000583220082    0.1400
     11 N11        -6.3190    2.4776   54.4628 N.am    1  ZINC000583220082   -0.6400
     12 C12        -6.9673    3.4070   53.7333 C.2     1  ZINC000583220082    0.5100
     13 O13        -8.1788    3.4709   53.7702 O.2     1  ZINC000583220082   -0.4900
     14 C14        -6.1949    4.3584   52.8794 C.2     1  ZINC000583220082    0.5100
     15 O15        -5.7868    5.4006   53.3484 O.2     1  ZINC000583220082   -0.5100
     16 N16        -5.9511    4.0594   51.5881 N.am    1  ZINC000583220082   -0.5800
     17 C17        -5.1872    4.9792   50.7315 C.3     1  ZINC000583220082    0.0600
     18 C18        -4.0644    4.1902   50.0497 C.3     1  ZINC000583220082    0.0300
     19 N19        -4.6373    3.0281   49.3575 N.3     1  ZINC000583220082   -0.4300
     20 C20        -3.6797    2.3826   48.5971 C.2     1  ZINC000583220082    0.2900
     21 N21        -3.6527    2.2511   47.2877 N.2     1  ZINC000583220082   -0.5700
     22 C22        -2.6332    1.5908   46.7787 C.2     1  ZINC000583220082    0.5400
     23 N23        -2.5127    1.3975   45.4032 N.pl3   1  ZINC000583220082   -0.8200
     24 N24        -1.7386    1.1234   47.6082 N.2     1  ZINC000583220082   -0.5500
     25 S25        -2.2607    1.5832   49.1584 S.3     1  ZINC000583220082    0.2000
     26 C26        -5.2693    2.1012   50.3058 C.3     1  ZINC000583220082    0.0500
     27 C27        -6.4364    2.8018   50.9998 C.3     1  ZINC000583220082    0.1100
     28 C28        -6.8071    1.5322   56.6299 C.ar    1  ZINC000583220082   -0.1200
     29 C29        -7.5268    0.6550   57.4171 C.ar    1  ZINC000583220082   -0.0800
     30 H30        -8.0228   -5.1890   56.9710 H       1  ZINC000583220082    0.0500
     31 H31        -7.4923   -4.6751   58.5905 H       1  ZINC000583220082    0.0800
     32 H32        -8.9957   -5.6091   58.4012 H       1  ZINC000583220082    0.0700
     33 H33       -10.8971   -4.6822   57.5774 H       1  ZINC000583220082    0.0800
     34 H34       -11.0624   -3.1150   58.4049 H       1  ZINC000583220082    0.0600
     35 H35       -10.8070   -3.1692   56.6442 H       1  ZINC000583220082    0.0600
     36 H36       -10.2128   -1.3461   57.2356 H       1  ZINC000583220082    0.1000
     37 H37        -9.4175   -0.6898   58.6864 H       1  ZINC000583220082    0.1000
     38 H38        -9.4510   -0.7689   55.0378 H       1  ZINC000583220082    0.1300
     39 H39        -8.1805    0.7961   53.6261 H       1  ZINC000583220082    0.1300
     40 H40        -5.3507    2.4265   54.4333 H       1  ZINC000583220082    0.4200
     41 H41        -5.8454    5.4071   49.9753 H       1  ZINC000583220082    0.0900
     42 H42        -4.7581    5.7751   51.3401 H       1  ZINC000583220082    0.1700
     43 H43        -3.5569    4.8299   49.3276 H       1  ZINC000583220082    0.1100
     44 H44        -3.3506    3.8509   50.8003 H       1  ZINC000583220082    0.0700
     45 H45        -3.0825    1.8906   44.7924 H       1  ZINC000583220082    0.4200
     46 H46        -1.8589    0.7701   45.0570 H       1  ZINC000583220082    0.4200
     47 H47        -5.6358    1.2259   49.7694 H       1  ZINC000583220082    0.1100
     48 H48        -4.5388    1.7911   51.0529 H       1  ZINC000583220082    0.0600
     49 H49        -6.8353    2.1587   51.7842 H       1  ZINC000583220082    0.1100
     50 H50        -7.2165    3.0224   50.2711 H       1  ZINC000583220082    0.0900
     51 H51        -6.0658    2.1773   57.0780 H       1  ZINC000583220082    0.1400
     52 H52        -7.3452    0.6116   58.4808 H       1  ZINC000583220082    0.1300
@<TRIPOS>BOND
     1     1     2    1
     2     1    30    1
     3     1    31    1
     4     1    32    1
     5     2     3    1
     6     2     4   am
     7     3    33    1
     8     3    34    1
     9     3    35    1
    10     4     5    2
    11     4     6    1
    12     6     7    1
    13     6    36    1
    14     6    37    1
    15     7    29   ar
    16     7     8   ar
    17     8     9   ar
    18     8    38    1
    19     9    10   ar
    20     9    39    1
    21    10    11    1
    22    10    28   ar
    23    11    12   am
    24    11    40    1
    25    12    13    2
    26    12    14    1
    27    14    15    2
    28    14    16   am
    29    16    27    1
    30    16    17    1
    31    17    18    1
    32    17    41    1
    33    17    42    1
    34    18    19    1
    35    18    43    1
    36    18    44    1
    37    19    20    1
    38    19    26    1
    39    20    25    1
    40    20    21    2
    41    21    22    1
    42    22    23    1
    43    22    24    2
    44    23    45    1
    45    23    46    1
    46    24    25    1
    47    26    27    1
    48    26    47    1
    49    26    48    1
    50    27    49    1
    51    27    50    1
    52    28    29   ar
    53    28    51    1
    54    29    52    1
@<TRIPOS>SUBSTRUCTURE
     1 ZINC000583220082        1 TEMP              0 ****  ****    0 ROOT


##########                                Name:    ZINC000428748914
##########                DOCK_Rotatable_Bonds:                  11
##########                         Heavy_Atoms:                  30
##########                    Molecular_Weight:             413.492
##########                DOCK_Rotatable_Bonds:                  11
##########                       Formal_Charge:           0.0199993
##########                     HBond_Acceptors:                   7
##########                        HBond_Donors:                   3
##########                         Heavy_Atoms:                  30
##########                          Grid_Score:          -35.670101
##########                     Grid_vdw_energy:          -32.406384
##########                      Grid_es_energy:           -3.263719
##########           Internal_energy_repulsive:           20.217268

@<TRIPOS>MOLECULE
ZINC000428748914
 58 61 1 0 0
SMALL
USER_CHARGES


@<TRIPOS>ATOM
      1 O1         -4.1660    3.7738   49.7441 O.2     1  ZINC000428748914   -0.5900
      2 C2         -4.0114    2.6758   50.2430 C.2     1  ZINC000428748914    0.7000
      3 N3         -5.0677    1.8547   50.4057 N.am    1  ZINC000428748914   -0.7400
      4 C4         -6.4032    2.2875   49.9868 C.3     1  ZINC000428748914    0.1900
      5 C5         -7.4428    1.6015   50.8352 C.ar    1  ZINC000428748914   -0.2000
      6 C6         -8.5082    2.3213   51.3575 C.ar    1  ZINC000428748914   -0.0200
      7 C7         -9.4406    1.6523   52.1315 C.ar    1  ZINC000428748914   -0.1900
      8 C8         -9.2795    0.2916   52.3581 C.ar    1  ZINC000428748914    0.3300
      9 O9        -10.1867   -0.3757   53.1147 O.3     1  ZINC000428748914   -0.3000
     10 C10       -11.4189    0.2934   53.3906 C.3     1  ZINC000428748914    0.0800
     11 C11       -12.2679    0.4196   52.1012 C.3     1  ZINC000428748914   -0.1400
     12 C12       -13.7071    0.5712   52.6531 C.3     1  ZINC000428748914   -0.1200
     13 C13       -13.7480   -0.3775   53.8689 C.3     1  ZINC000428748914   -0.1200
     14 C14       -12.2931   -0.5541   54.3378 C.3     1  ZINC000428748914   -0.1200
     15 N15        -8.2501   -0.3602   51.8428 N.ar    1  ZINC000428748914   -0.5400
     16 C16        -7.3486    0.2488   51.0964 C.ar    1  ZINC000428748914    0.1600
     17 N17        -2.7828    2.2777   50.6284 N.am    1  ZINC000428748914   -0.7400
     18 C18        -1.6346    3.1702   50.4516 C.3     1  ZINC000428748914    0.1800
     19 C19        -0.8230    2.7221   49.2344 C.3     1  ZINC000428748914   -0.1300
     20 C20        -0.3465    1.2684   49.2579 C.3     1  ZINC000428748914    0.1100
     21 O21         0.2826    0.9934   50.5112 O.3     1  ZINC000428748914   -0.5700
     22 C22         0.0935    3.7558   48.5769 C.3     1  ZINC000428748914   -0.1400
     23 C23        -1.1959    3.3214   47.8771 C.3     1  ZINC000428748914   -0.1000
     24 H24        -2.0194    4.0351   47.8512 H       1  ZINC000428748914    0.1200
     25 C25        -1.0652    2.4354   46.6651 C.ar    1  ZINC000428748914   -0.0700
     26 C26        -1.8463    1.3004   46.5517 C.ar    1  ZINC000428748914   -0.0900
     27 C27        -1.7273    0.4871   45.4408 C.ar    1  ZINC000428748914   -0.1500
     28 C28        -0.8257    0.8098   44.4407 C.ar    1  ZINC000428748914    0.1000
     29 F29        -0.7088    0.0157   43.3539 F       1  ZINC000428748914   -0.1400
     30 C30        -0.0442    1.9470   44.5551 C.ar    1  ZINC000428748914   -0.1500
     31 C31        -0.1684    2.7613   45.6648 C.ar    1  ZINC000428748914   -0.0800
     32 H32        -4.9438    0.9772   50.8000 H       1  ZINC000428748914    0.4000
     33 H33        -6.4900    3.3673   50.1082 H       1  ZINC000428748914    0.0800
     34 H34        -6.5582    2.0260   48.9400 H       1  ZINC000428748914    0.0800
     35 H35        -8.6074    3.3793   51.1648 H       1  ZINC000428748914    0.1400
     36 H36       -10.2819    2.1814   52.5542 H       1  ZINC000428748914    0.1400
     37 H37       -11.2299    1.2760   53.8230 H       1  ZINC000428748914    0.1000
     38 H38       -11.9773    1.3026   51.5322 H       1  ZINC000428748914    0.0700
     39 H39       -12.1807   -0.4799   51.4917 H       1  ZINC000428748914    0.0800
     40 H40       -13.8896    1.5994   52.9652 H       1  ZINC000428748914    0.0700
     41 H41       -14.4371    0.2635   51.9044 H       1  ZINC000428748914    0.0700
     42 H42       -14.3465    0.0630   54.6663 H       1  ZINC000428748914    0.0700
     43 H43       -14.1657   -1.3410   53.5767 H       1  ZINC000428748914    0.0700
     44 H44       -12.0048   -1.6033   54.2732 H       1  ZINC000428748914    0.0800
     45 H45       -12.1856   -0.1993   55.3628 H       1  ZINC000428748914    0.0700
     46 H46        -6.5215   -0.3160   50.6922 H       1  ZINC000428748914    0.1600
     47 H47        -2.6588    1.4002   51.0227 H       1  ZINC000428748914    0.3900
     48 H48        -1.9873    4.1899   50.2978 H       1  ZINC000428748914    0.0700
     49 H49        -1.0057    3.1336   51.3412 H       1  ZINC000428748914    0.0900
     50 H50        -1.2005    0.6039   49.1265 H       1  ZINC000428748914    0.0500
     51 H51         0.3671    1.1068   48.4500 H       1  ZINC000428748914    0.0600
     52 H52         0.5623    0.0739   50.6175 H       1  ZINC000428748914    0.3800
     53 H53         0.1182    4.7552   49.0114 H       1  ZINC000428748914    0.1100
     54 H54         1.0362    3.4004   48.1610 H       1  ZINC000428748914    0.1100
     55 H55        -2.5496    1.0490   47.3319 H       1  ZINC000428748914    0.1400
     56 H56        -2.3371   -0.3998   45.3527 H       1  ZINC000428748914    0.1400
     57 H57         0.6597    2.1994   43.7758 H       1  ZINC000428748914    0.1400
     58 H58         0.4408    3.6486   45.7541 H       1  ZINC000428748914    0.1300
@<TRIPOS>BOND
     1     1     2    2
     2     2     3   am
     3     2    17   am
     4     3     4    1
     5     3    32    1
     6     4     5    1
     7     4    33    1
     8     4    34    1
     9     5    16   ar
    10     5     6   ar
    11     6     7   ar
    12     6    35    1
    13     7     8   ar
    14     7    36    1
    15     8     9    1
    16     8    15   ar
    17     9    10    1
    18    10    14    1
    19    10    11    1
    20    10    37    1
    21    11    12    1
    22    11    38    1
    23    11    39    1
    24    12    13    1
    25    12    40    1
    26    12    41    1
    27    13    14    1
    28    13    42    1
    29    13    43    1
    30    14    44    1
    31    14    45    1
    32    15    16   ar
    33    16    46    1
    34    17    18    1
    35    17    47    1
    36    18    19    1
    37    18    48    1
    38    18    49    1
    39    19    23    1
    40    19    20    1
    41    19    22    1
    42    20    21    1
    43    20    50    1
    44    20    51    1
    45    21    52    1
    46    22    23    1
    47    22    53    1
    48    22    54    1
    49    23    24    1
    50    23    25    1
    51    25    31   ar
    52    25    26   ar
    53    26    27   ar
    54    26    55    1
    55    27    28   ar
    56    27    56    1
    57    28    29    1
    58    28    30   ar
    59    30    31   ar
    60    30    57    1
    61    31    58    1
@<TRIPOS>SUBSTRUCTURE
     1 ZINC000428748914        1 TEMP              0 ****  ****    0 ROOT


##########                                Name:    ZINC000562561773
##########                DOCK_Rotatable_Bonds:                   6
##########                         Heavy_Atoms:                  26
##########                    Molecular_Weight:             371.466
##########                DOCK_Rotatable_Bonds:                   6
##########                       Formal_Charge:           0.0199999
##########                     HBond_Acceptors:                   9
##########                        HBond_Donors:                   0
##########                         Heavy_Atoms:                  26
##########                          Grid_Score:          -35.493828
##########                     Grid_vdw_energy:          -33.821617
##########                      Grid_es_energy:           -1.672212
##########           Internal_energy_repulsive:            9.236543

@<TRIPOS>MOLECULE
ZINC000562561773
 47 50 1 0 0
SMALL
USER_CHARGES


@<TRIPOS>ATOM
      1 C1        -12.1034   -1.0439   55.6871 C.3     1  ZINC000562561773   -0.1100
      2 C2        -10.9710   -0.6019   54.7964 C.ar    1  ZINC000562561773   -0.0400
      3 C3        -11.1351   -0.5963   53.4245 C.ar    1  ZINC000562561773   -0.1200
      4 C4        -10.1013   -0.1925   52.6029 C.ar    1  ZINC000562561773   -0.0700
      5 C5         -8.8878    0.2110   53.1562 C.ar    1  ZINC000562561773   -0.0300
      6 C6         -7.7760    0.6458   52.2742 C.2     1  ZINC000562561773    0.2200
      7 N7         -7.3214    0.0085   51.2269 N.2     1  ZINC000562561773   -0.3700
      8 O8         -6.4084    0.6294   50.7249 O.3     1  ZINC000562561773    0.0900
      9 C9         -6.1828    1.7509   51.4164 C.2     1  ZINC000562561773    0.1900
     10 C10        -5.1355    2.7920   51.1164 C.3     1  ZINC000562561773   -0.0100
     11 C11        -4.6317    2.6106   49.6832 C.3     1  ZINC000562561773   -0.1200
     12 S12        -3.2423    1.4504   49.6743 S.3     1  ZINC000562561773    0.0600
     13 C13        -2.6914    1.6456   48.0121 C.2     1  ZINC000562561773    0.2100
     14 N14        -3.2077    2.4481   47.1067 N.2     1  ZINC000562561773   -0.3300
     15 N15        -2.5679    2.3461   45.9979 N.2     1  ZINC000562561773   -0.0300
     16 N16        -1.6131    1.4872   46.1090 N.2     1  ZINC000562561773   -0.0700
     17 N17        -1.6533    1.0019   47.4279 N.pl3   1  ZINC000562561773   -0.3600
     18 C18        -0.7676    0.0066   48.0369 C.3     1  ZINC000562561773    0.0800
     19 N19        -7.0475    1.7781   52.3998 N.2     1  ZINC000562561773   -0.4600
     20 C20        -8.7209    0.2059   54.5384 C.ar    1  ZINC000562561773   -0.1100
     21 C21        -9.7658   -0.1956   55.3573 C.ar    1  ZINC000562561773    0.0800
     22 N22        -9.6035   -0.2020   56.7448 N.3     1  ZINC000562561773   -0.4800
     23 C23        -8.3957   -0.9731   57.1358 C.3     1  ZINC000562561773    0.0400
     24 C24        -8.0848   -0.4471   58.5597 C.3     1  ZINC000562561773   -0.1200
     25 C25        -8.4261    1.0571   58.4547 C.3     1  ZINC000562561773   -0.1300
     26 C26        -9.3915    1.1680   57.2601 C.3     1  ZINC000562561773    0.0400
     27 H27       -12.7216   -0.1833   55.9429 H       1  ZINC000562561773    0.0700
     28 H28       -12.7094   -1.7839   55.1643 H       1  ZINC000562561773    0.0600
     29 H29       -11.6985   -1.4840   56.5984 H       1  ZINC000562561773    0.0800
     30 H30       -12.0748   -0.9091   52.9935 H       1  ZINC000562561773    0.1400
     31 H31       -10.2334   -0.1899   51.5310 H       1  ZINC000562561773    0.1400
     32 H32        -5.5693    3.7860   51.2260 H       1  ZINC000562561773    0.1200
     33 H33        -4.3029    2.6806   51.8111 H       1  ZINC000562561773    0.1300
     34 H34        -5.4367    2.2181   49.0620 H       1  ZINC000562561773    0.1100
     35 H35        -4.3043    3.5725   49.2886 H       1  ZINC000562561773    0.1100
     36 H36         0.0911    0.5086   48.4825 H       1  ZINC000562561773    0.1000
     37 H37        -1.3104   -0.5390   48.8088 H       1  ZINC000562561773    0.1000
     38 H38        -0.4245   -0.6906   47.2724 H       1  ZINC000562561773    0.1100
     39 H39        -7.7821    0.5176   54.9717 H       1  ZINC000562561773    0.1300
     40 H40        -8.6119   -2.0412   57.1590 H       1  ZINC000562561773    0.0900
     41 H41        -7.5682   -0.7615   56.4585 H       1  ZINC000562561773    0.0500
     42 H42        -8.7197   -0.9360   59.2986 H       1  ZINC000562561773    0.0800
     43 H43        -7.0313   -0.5877   58.8014 H       1  ZINC000562561773    0.0700
     44 H44        -8.9133    1.3991   59.3679 H       1  ZINC000562561773    0.0800
     45 H45        -7.5230    1.6377   58.2665 H       1  ZINC000562561773    0.0700
     46 H46        -8.9507    1.7928   56.4832 H       1  ZINC000562561773    0.0500
     47 H47       -10.3405    1.5925   57.5877 H       1  ZINC000562561773    0.0800
@<TRIPOS>BOND
     1     1     2    1
     2     1    27    1
     3     1    28    1
     4     1    29    1
     5     2    21   ar
     6     2     3   ar
     7     3     4   ar
     8     3    30    1
     9     4     5   ar
    10     4    31    1
    11     5     6    1
    12     5    20   ar
    13     6    19    1
    14     6     7    2
    15     7     8    1
    16     8     9    1
    17     9    10    1
    18     9    19    2
    19    10    11    1
    20    10    32    1
    21    10    33    1
    22    11    12    1
    23    11    34    1
    24    11    35    1
    25    12    13    1
    26    13    17    1
    27    13    14    2
    28    14    15    1
    29    15    16    2
    30    16    17    1
    31    17    18    1
    32    18    36    1
    33    18    37    1
    34    18    38    1
    35    20    21   ar
    36    20    39    1
    37    21    22    1
    38    22    26    1
    39    22    23    1
    40    23    24    1
    41    23    40    1
    42    23    41    1
    43    24    25    1
    44    24    42    1
    45    24    43    1
    46    25    26    1
    47    25    44    1
    48    25    45    1
    49    26    46    1
    50    26    47    1
@<TRIPOS>SUBSTRUCTURE
     1 ZINC000562561773        1 TEMP              0 ****  ****    0 ROOT


##########                                Name:    ZINC000981700465
##########                DOCK_Rotatable_Bonds:                   9
##########                         Heavy_Atoms:                  26
##########                    Molecular_Weight:             356.428
##########                DOCK_Rotatable_Bonds:                   9
##########                       Formal_Charge:               -0.01
##########                     HBond_Acceptors:                   8
##########                        HBond_Donors:                   3
##########                         Heavy_Atoms:                  26
##########                          Grid_Score:          -35.412552
##########                     Grid_vdw_energy:          -35.742580
##########                      Grid_es_energy:            0.330028
##########           Internal_energy_repulsive:            8.910313

@<TRIPOS>MOLECULE
ZINC000981700465
 50 52 1 0 0
SMALL
USER_CHARGES


@<TRIPOS>ATOM
      1 C1         -8.9427    4.3643   49.3781 C.3     1  ZINC000981700465   -0.1500
      2 C2         -7.7684    3.3913   49.5021 C.3     1  ZINC000981700465   -0.1100
      3 C3         -6.8417    3.8515   50.6292 C.3     1  ZINC000981700465   -0.0500
      4 C4         -5.6717    2.9076   50.7345 C.2     1  ZINC000981700465    0.1400
      5 N5         -4.4126    3.2329   50.6313 N.2     1  ZINC000981700465   -0.2900
      6 N6         -3.6328    2.0814   50.7858 N.pl3   1  ZINC000981700465   -0.4600
      7 C7         -4.4515    1.0366   50.9876 C.2     1  ZINC000981700465    0.1000
      8 C8         -5.7458    1.5162   50.9686 C.2     1  ZINC000981700465   -0.2900
      9 C9         -6.9757    0.7234   51.1485 C.2     1  ZINC000981700465    0.5900
     10 O10        -7.2325   -0.1833   50.3801 O.2     1  ZINC000981700465   -0.5300
     11 N11        -7.8155    1.0037   52.1648 N.am    1  ZINC000981700465   -0.7300
     12 C12        -9.0385    0.2171   52.3425 C.3     1  ZINC000981700465    0.1300
     13 C13        -9.7819    0.7045   53.5878 C.3     1  ZINC000981700465   -0.1100
     14 H14       -10.0529    1.7550   53.4823 H       1  ZINC000981700465    0.0900
     15 C15       -11.0435   -0.1584   53.8384 C.3     1  ZINC000981700465   -0.1200
     16 C16       -11.2960    0.0375   55.3540 C.3     1  ZINC000981700465   -0.1300
     17 C17        -9.8830    0.0663   55.9724 C.3     1  ZINC000981700465    0.1400
     18 H18        -9.8469    0.7888   56.7878 H       1  ZINC000981700465    0.1000
     19 N19        -9.5241   -1.2655   56.4660 N.am    1  ZINC000981700465   -0.7100
     20 C20        -8.5407   -1.4039   57.3773 C.2     1  ZINC000981700465    0.5600
     21 O21        -7.9509   -0.4242   57.7883 O.2     1  ZINC000981700465   -0.5200
     22 C22        -8.1790   -2.7503   57.8779 C.ar    1  ZINC000981700465   -0.1400
     23 C23        -9.1050   -3.8013   57.8643 C.ar    1  ZINC000981700465   -0.0600
     24 C24        -8.6931   -5.0323   58.3486 C.ar    1  ZINC000981700465    0.0400
     25 N25        -7.4640   -5.1841   58.8021 N.ar    1  ZINC000981700465   -0.2200
     26 N26        -6.6113   -4.2259   58.8173 N.ar    1  ZINC000981700465   -0.2400
     27 C27        -6.9002   -3.0175   58.3746 C.ar    1  ZINC000981700465    0.0700
     28 C28        -8.9188    0.4936   54.8490 C.3     1  ZINC000981700465   -0.1200
     29 H29        -8.5657    5.3621   49.1540 H       1  ZINC000981700465    0.0600
     30 H30        -9.6028    4.0364   48.5751 H       1  ZINC000981700465    0.0600
     31 H31        -9.4962    4.3873   50.3168 H       1  ZINC000981700465    0.0500
     32 H32        -8.1454    2.3935   49.7262 H       1  ZINC000981700465    0.0600
     33 H33        -7.2149    3.3683   48.5633 H       1  ZINC000981700465    0.0600
     34 H34        -6.4795    4.8568   50.4143 H       1  ZINC000981700465    0.1000
     35 H35        -7.3902    3.8566   51.5712 H       1  ZINC000981700465    0.0800
     36 H36        -2.6641    2.0442   50.7528 H       1  ZINC000981700465    0.4500
     37 H37        -4.1523    0.0103   51.1410 H       1  ZINC000981700465    0.1800
     38 H38        -7.6100    1.7262   52.7785 H       1  ZINC000981700465    0.4000
     39 H39        -9.6777    0.3364   51.4677 H       1  ZINC000981700465    0.0700
     40 H40        -8.7797   -0.8349   52.4625 H       1  ZINC000981700465    0.0700
     41 H41       -11.8867    0.2118   53.2553 H       1  ZINC000981700465    0.0700
     42 H42       -10.8461   -1.2061   53.6120 H       1  ZINC000981700465    0.0700
     43 H43       -11.8113    0.9806   55.5361 H       1  ZINC000981700465    0.0800
     44 H44       -11.8714   -0.7965   55.7558 H       1  ZINC000981700465    0.0700
     45 H45        -9.9941   -2.0476   56.1372 H       1  ZINC000981700465    0.4000
     46 H46       -10.1073   -3.6566   57.4890 H       1  ZINC000981700465    0.1700
     47 H47        -9.3783   -5.8671   58.3549 H       1  ZINC000981700465    0.1800
     48 H48        -6.1551   -2.2363   58.4035 H       1  ZINC000981700465    0.1700
     49 H49        -8.1837   -0.2908   54.6694 H       1  ZINC000981700465    0.0800
     50 H50        -8.4163    1.4217   55.1213 H       1  ZINC000981700465    0.0800
@<TRIPOS>BOND
     1     1     2    1
     2     1    29    1
     3     1    30    1
     4     1    31    1
     5     2     3    1
     6     2    32    1
     7     2    33    1
     8     3     4    1
     9     3    34    1
    10     3    35    1
    11     4     8    1
    12     4     5    2
    13     5     6    1
    14     6     7    1
    15     6    36    1
    16     7     8    2
    17     7    37    1
    18     8     9    1
    19     9    10    2
    20     9    11   am
    21    11    12    1
    22    11    38    1
    23    12    13    1
    24    12    39    1
    25    12    40    1
    26    13    14    1
    27    13    28    1
    28    13    15    1
    29    15    16    1
    30    15    41    1
    31    15    42    1
    32    16    17    1
    33    16    43    1
    34    16    44    1
    35    17    18    1
    36    17    19    1
    37    17    28    1
    38    19    20   am
    39    19    45    1
    40    20    21    2
    41    20    22    1
    42    22    27   ar
    43    22    23   ar
    44    23    24   ar
    45    23    46    1
    46    24    25   ar
    47    24    47    1
    48    25    26   ar
    49    26    27   ar
    50    27    48    1
    51    28    49    1
    52    28    50    1
@<TRIPOS>SUBSTRUCTURE
     1 ZINC000981700465        1 TEMP              0 ****  ****    0 ROOT


##########                                Name:    ZINC000512699033
##########                DOCK_Rotatable_Bonds:                   9
##########                         Heavy_Atoms:                  30
##########                    Molecular_Weight:              405.54
##########                DOCK_Rotatable_Bonds:                   9
##########                       Formal_Charge:           0.0199988
##########                     HBond_Acceptors:                   5
##########                        HBond_Donors:                   2
##########                         Heavy_Atoms:                  30
##########                          Grid_Score:          -35.411045
##########                     Grid_vdw_energy:          -34.518154
##########                      Grid_es_energy:           -0.892890
##########           Internal_energy_repulsive:           12.307882

@<TRIPOS>MOLECULE
ZINC000512699033
 61 64 1 0 0
SMALL
USER_CHARGES


@<TRIPOS>ATOM
      1 O1         -7.8586   -0.2850   56.0865 O.2     1  ZINC000512699033   -0.5100
      2 C2         -8.3015    0.3140   57.0437 C.2     1  ZINC000512699033    0.5200
      3 C3         -8.5465    1.7983   56.9562 C.3     1  ZINC000512699033   -0.1500
      4 C4         -8.9142    2.1707   55.5184 C.3     1  ZINC000512699033    0.1300
      5 N5         -7.6953    2.4806   54.7672 N.am    1  ZINC000512699033   -0.7300
      6 C6         -7.7189    2.4922   53.4197 C.2     1  ZINC000512699033    0.5200
      7 O7         -8.7494    2.2475   52.8291 O.2     1  ZINC000512699033   -0.5300
      8 C8         -6.4645    2.8093   52.6469 C.3     1  ZINC000512699033   -0.1100
      9 C9         -5.2410    2.4144   53.4763 C.3     1  ZINC000512699033   -0.1100
     10 C10        -3.9675    2.7363   52.6916 C.3     1  ZINC000512699033   -0.1200
     11 C11        -3.9668    1.9535   51.3772 C.3     1  ZINC000512699033   -0.1200
     12 C12        -5.1904    2.3484   50.5477 C.3     1  ZINC000512699033   -0.1200
     13 C13        -6.4639    2.0265   51.3323 C.3     1  ZINC000512699033   -0.1000
     14 N14        -8.5797   -0.3489   58.1837 N.am    1  ZINC000512699033   -0.6600
     15 C15        -8.3521   -1.7272   58.2650 C.ar    1  ZINC000512699033    0.1700
     16 C16        -7.1017   -2.2054   58.6331 C.ar    1  ZINC000512699033   -0.1400
     17 C17        -6.8804   -3.5666   58.7130 C.ar    1  ZINC000512699033   -0.1000
     18 C18        -7.9025   -4.4525   58.4262 C.ar    1  ZINC000512699033   -0.1400
     19 C19        -9.1491   -3.9793   58.0591 C.ar    1  ZINC000512699033   -0.0900
     20 C20        -9.3783   -2.6197   57.9831 C.ar    1  ZINC000512699033   -0.1200
     21 C21       -10.7370   -2.1050   57.5832 C.3     1  ZINC000512699033    0.0900
     22 N22       -11.7776   -2.9170   58.2281 N.3     1  ZINC000512699033   -0.4700
     23 C23       -11.9157   -2.5635   59.6577 C.3     1  ZINC000512699033    0.0500
     24 C24       -13.4133   -2.8340   59.9298 C.3     1  ZINC000512699033   -0.0900
     25 C25       -14.0393   -2.6712   58.5590 C.ar    1  ZINC000512699033   -0.1400
     26 C26       -15.3497   -2.4989   58.1665 C.ar    1  ZINC000512699033   -0.0800
     27 C27       -15.6601   -2.3675   56.8246 C.ar    1  ZINC000512699033   -0.1400
     28 C28       -14.6536   -2.4090   55.8775 C.ar    1  ZINC000512699033   -0.0900
     29 C29       -13.3411   -2.5833   56.2649 C.ar    1  ZINC000512699033   -0.1400
     30 C30       -13.0207   -2.7194   57.6143 C.ar    1  ZINC000512699033    0.0900
     31 H31        -9.3645    2.0715   57.6228 H       1  ZINC000512699033    0.1100
     32 H32        -7.6437    2.3335   57.2505 H       1  ZINC000512699033    0.1000
     33 H33        -9.4289    1.3337   55.0466 H       1  ZINC000512699033    0.0800
     34 H34        -9.5685    3.0424   55.5250 H       1  ZINC000512699033    0.0800
     35 H35        -6.8713    2.6775   55.2396 H       1  ZINC000512699033    0.4000
     36 H36        -6.4295    3.8777   52.4336 H       1  ZINC000512699033    0.1000
     37 H37        -5.2415    2.9721   54.4128 H       1  ZINC000512699033    0.0700
     38 H38        -5.2760    1.3461   53.6896 H       1  ZINC000512699033    0.0700
     39 H39        -3.9324    3.8047   52.4784 H       1  ZINC000512699033    0.0600
     40 H40        -3.0958    2.4550   53.2825 H       1  ZINC000512699033    0.0700
     41 H41        -3.0596    2.1828   50.8182 H       1  ZINC000512699033    0.0600
     42 H42        -4.0019    0.8851   51.5905 H       1  ZINC000512699033    0.0600
     43 H43        -5.1554    3.4166   50.3344 H       1  ZINC000512699033    0.0600
     44 H44        -5.1899    1.7905   49.6112 H       1  ZINC000512699033    0.0700
     45 H45        -6.4989    0.9581   51.5457 H       1  ZINC000512699033    0.0700
     46 H46        -7.3355    2.3077   50.7415 H       1  ZINC000512699033    0.0700
     47 H47        -8.9377    0.1295   58.9478 H       1  ZINC000512699033    0.4200
     48 H48        -6.3027   -1.5138   58.8566 H       1  ZINC000512699033    0.1500
     49 H49        -5.9081   -3.9391   58.9992 H       1  ZINC000512699033    0.1300
     50 H50        -7.7268   -5.5163   58.4885 H       1  ZINC000512699033    0.1200
     51 H51        -9.9455   -4.6738   57.8358 H       1  ZINC000512699033    0.1200
     52 H52       -10.8393   -1.0665   57.8980 H       1  ZINC000512699033    0.0600
     53 H53       -10.8455   -2.1687   56.5004 H       1  ZINC000512699033    0.0900
     54 H54       -11.2882   -3.2046   60.2769 H       1  ZINC000512699033    0.1000
     55 H55       -11.6767   -1.5126   59.8209 H       1  ZINC000512699033    0.0600
     56 H56       -13.5608   -3.8472   60.3036 H       1  ZINC000512699033    0.0900
     57 H57       -13.8173   -2.1010   60.6282 H       1  ZINC000512699033    0.0800
     58 H58       -16.1349   -2.4668   58.9073 H       1  ZINC000512699033    0.1200
     59 H59       -16.6867   -2.2334   56.5175 H       1  ZINC000512699033    0.1300
     60 H60       -14.8960   -2.3048   54.8303 H       1  ZINC000512699033    0.1300
     61 H61       -12.5596   -2.6151   55.5201 H       1  ZINC000512699033    0.1200
@<TRIPOS>BOND
     1     1     2    2
     2     2     3    1
     3     2    14   am
     4     3     4    1
     5     3    31    1
     6     3    32    1
     7     4     5    1
     8     4    33    1
     9     4    34    1
    10     5     6   am
    11     5    35    1
    12     6     7    2
    13     6     8    1
    14     8    13    1
    15     8     9    1
    16     8    36    1
    17     9    10    1
    18     9    37    1
    19     9    38    1
    20    10    11    1
    21    10    39    1
    22    10    40    1
    23    11    12    1
    24    11    41    1
    25    11    42    1
    26    12    13    1
    27    12    43    1
    28    12    44    1
    29    13    45    1
    30    13    46    1
    31    14    15    1
    32    14    47    1
    33    15    20   ar
    34    15    16   ar
    35    16    17   ar
    36    16    48    1
    37    17    18   ar
    38    17    49    1
    39    18    19   ar
    40    18    50    1
    41    19    20   ar
    42    19    51    1
    43    20    21    1
    44    21    22    1
    45    21    52    1
    46    21    53    1
    47    22    30    1
    48    22    23    1
    49    23    24    1
    50    23    54    1
    51    23    55    1
    52    24    25    1
    53    24    56    1
    54    24    57    1
    55    25    30   ar
    56    25    26   ar
    57    26    27   ar
    58    26    58    1
    59    27    28   ar
    60    27    59    1
    61    28    29   ar
    62    28    60    1
    63    29    30   ar
    64    29    61    1
@<TRIPOS>SUBSTRUCTURE
     1 ZINC000512699033        1 TEMP              0 ****  ****    0 ROOT


##########                                Name:    ZINC000114394234
##########                DOCK_Rotatable_Bonds:                   9
##########                         Heavy_Atoms:                  27
##########                    Molecular_Weight:             365.392
##########                DOCK_Rotatable_Bonds:                   9
##########                       Formal_Charge:           0.0300002
##########                     HBond_Acceptors:                   8
##########                        HBond_Donors:                   3
##########                         Heavy_Atoms:                  27
##########                          Grid_Score:          -35.398247
##########                     Grid_vdw_energy:          -32.626362
##########                      Grid_es_energy:           -2.771885
##########           Internal_energy_repulsive:           11.531230

@<TRIPOS>MOLECULE
ZINC000114394234
 46 48 1 0 0
SMALL
USER_CHARGES


@<TRIPOS>ATOM
      1 C1         -9.0108    3.3095   52.7830 C.3     1  ZINC000114394234   -0.1600
      2 C2         -8.5549    1.9917   52.1536 C.3     1  ZINC000114394234    0.1300
      3 H3         -8.9976    1.8899   51.1627 H       1  ZINC000114394234    0.1200
      4 N4         -7.0943    1.9849   52.0388 N.am    1  ZINC000114394234   -0.7100
      5 C5         -6.4905    1.1502   51.1699 C.2     1  ZINC000114394234    0.5200
      6 O6         -7.1561    0.4034   50.4841 O.2     1  ZINC000114394234   -0.5100
      7 C7         -4.9883    1.1445   51.0506 C.3     1  ZINC000114394234    0.0400
      8 O8         -4.5894    2.0432   50.0137 O.3     1  ZINC000114394234   -0.2900
      9 C9         -3.2669    2.0782   49.7024 C.ar    1  ZINC000114394234    0.1300
     10 C10        -2.3664    1.2922   50.4066 C.ar    1  ZINC000114394234   -0.2100
     11 C11        -1.0227    1.3291   50.0879 C.ar    1  ZINC000114394234   -0.0800
     12 C12        -0.5750    2.1487   49.0683 C.ar    1  ZINC000114394234   -0.1600
     13 C13        -1.4705    2.9333   48.3653 C.ar    1  ZINC000114394234   -0.0800
     14 C14        -2.8161    2.8954   48.6760 C.ar    1  ZINC000114394234   -0.1500
     15 C15        -8.9960    0.8414   53.0214 C.2     1  ZINC000114394234    0.5100
     16 O16        -9.1259   -0.2651   52.5417 O.2     1  ZINC000114394234   -0.5100
     17 N17        -9.2462    1.0419   54.3304 N.am    1  ZINC000114394234   -0.6700
     18 C18        -9.6558   -0.0263   55.1362 C.ar    1  ZINC000114394234    0.1300
     19 C19       -10.9882   -0.4198   55.1439 C.ar    1  ZINC000114394234   -0.1200
     20 C20       -11.3964   -1.4745   55.9385 C.ar    1  ZINC000114394234   -0.1000
     21 C21       -10.4830   -2.1424   56.7290 C.ar    1  ZINC000114394234   -0.0900
     22 C22        -9.1443   -1.7540   56.7279 C.ar    1  ZINC000114394234    0.0000
     23 C23        -8.1610   -2.4707   57.5777 C.2     1  ZINC000114394234    0.2700
     24 N24        -7.1297   -1.9244   58.1837 N.2     1  ZINC000114394234   -0.3000
     25 N25        -6.4730   -2.9568   58.8729 N.pl3   1  ZINC000114394234   -0.4800
     26 C26        -7.1691   -4.0820   58.6300 C.2     1  ZINC000114394234    0.2700
     27 N27        -8.1802   -3.7805   57.8591 N.2     1  ZINC000114394234   -0.5300
     28 C28        -8.7309   -0.6963   55.9230 C.ar    1  ZINC000114394234   -0.0800
     29 H29        -8.5681    3.4113   53.7738 H       1  ZINC000114394234    0.0700
     30 H30        -8.6918    4.1416   52.1553 H       1  ZINC000114394234    0.0800
     31 H31       -10.0975    3.3145   52.8684 H       1  ZINC000114394234    0.0800
     32 H32        -6.5619    2.5813   52.5882 H       1  ZINC000114394234    0.4100
     33 H33        -4.5475    1.4615   51.9957 H       1  ZINC000114394234    0.1000
     34 H34        -4.6467    0.1377   50.8100 H       1  ZINC000114394234    0.1000
     35 H35        -2.7154    0.6524   51.2037 H       1  ZINC000114394234    0.1300
     36 H36        -0.3212    0.7175   50.6359 H       1  ZINC000114394234    0.1300
     37 H37         0.4759    2.1764   48.8209 H       1  ZINC000114394234    0.1300
     38 H38        -1.1184    3.5730   47.5695 H       1  ZINC000114394234    0.1300
     39 H39        -3.5151    3.5084   48.1265 H       1  ZINC000114394234    0.1300
     40 H40        -9.1423    1.9268   54.7140 H       1  ZINC000114394234    0.4200
     41 H41       -11.7069    0.1000   54.5276 H       1  ZINC000114394234    0.1300
     42 H42       -12.4333   -1.7767   55.9411 H       1  ZINC000114394234    0.1400
     43 H43       -10.8056   -2.9657   57.3490 H       1  ZINC000114394234    0.1400
     44 H44        -5.6741   -2.8747   59.4170 H       1  ZINC000114394234    0.4400
     45 H45        -6.9351   -5.0652   59.0108 H       1  ZINC000114394234    0.2300
     46 H46        -7.6947   -0.3918   55.9187 H       1  ZINC000114394234    0.1500
@<TRIPOS>BOND
     1     1     2    1
     2     1    29    1
     3     1    30    1
     4     1    31    1
     5     2     3    1
     6     2     4    1
     7     2    15    1
     8     4     5   am
     9     4    32    1
    10     5     6    2
    11     5     7    1
    12     7     8    1
    13     7    33    1
    14     7    34    1
    15     8     9    1
    16     9    14   ar
    17     9    10   ar
    18    10    11   ar
    19    10    35    1
    20    11    12   ar
    21    11    36    1
    22    12    13   ar
    23    12    37    1
    24    13    14   ar
    25    13    38    1
    26    14    39    1
    27    15    16    2
    28    15    17   am
    29    17    18    1
    30    17    40    1
    31    18    28   ar
    32    18    19   ar
    33    19    20   ar
    34    19    41    1
    35    20    21   ar
    36    20    42    1
    37    21    22   ar
    38    21    43    1
    39    22    23    1
    40    22    28   ar
    41    23    27    1
    42    23    24    2
    43    24    25    1
    44    25    26    1
    45    25    44    1
    46    26    27    2
    47    26    45    1
    48    28    46    1
@<TRIPOS>SUBSTRUCTURE
     1 ZINC000114394234        1 TEMP              0 ****  ****    0 ROOT


##########                                Name:    ZINC000512239524
##########                DOCK_Rotatable_Bonds:                   9
##########                         Heavy_Atoms:                  31
##########                    Molecular_Weight:             424.518
##########                DOCK_Rotatable_Bonds:                   9
##########                       Formal_Charge:          0.00999919
##########                     HBond_Acceptors:                   7
##########                        HBond_Donors:                   1
##########                         Heavy_Atoms:                  31
##########                          Grid_Score:          -35.397263
##########                     Grid_vdw_energy:          -34.389645
##########                      Grid_es_energy:           -1.007617
##########           Internal_energy_repulsive:           27.890593

@<TRIPOS>MOLECULE
ZINC000512239524
 60 63 1 0 0
SMALL
USER_CHARGES


@<TRIPOS>ATOM
      1 C1        -10.5736   -1.0319   59.3233 C.3     1  ZINC000512239524   -0.1600
      2 C2        -10.3213   -1.7510   57.9966 C.3     1  ZINC000512239524    0.2000
      3 H3        -11.1876   -2.3624   57.7443 H       1  ZINC000512239524    0.1100
      4 N4        -10.0974   -0.7616   56.9398 N.am    1  ZINC000512239524   -0.7400
      5 C5        -10.7292   -0.8854   55.7558 C.2     1  ZINC000512239524    0.7100
      6 O6        -11.4852   -1.8184   55.5648 O.2     1  ZINC000512239524   -0.5800
      7 N7        -10.5232    0.0250   54.7835 N.am    1  ZINC000512239524   -0.6300
      8 C8         -9.6082    1.1545   54.9973 C.3     1  ZINC000512239524    0.1300
      9 C9         -8.5798    1.1776   53.8620 C.3     1  ZINC000512239524   -0.1100
     10 C10        -9.3106    1.2064   52.5176 C.3     1  ZINC000512239524   -0.1000
     11 C11        -8.3022    1.2634   51.3993 C.2     1  ZINC000512239524    0.5300
     12 O12        -7.9049    0.2379   50.8879 O.2     1  ZINC000512239524   -0.5300
     13 N13        -7.8417    2.4542   50.9672 N.am    1  ZINC000512239524   -0.5800
     14 C14        -6.8626    2.5097   49.8788 C.3     1  ZINC000512239524    0.1500
     15 C15        -5.4780    2.6559   50.4556 C.ar    1  ZINC000512239524   -0.1100
     16 C16        -5.2022    2.1732   51.7213 C.ar    1  ZINC000512239524   -0.0900
     17 C17        -3.9321    2.3073   52.2503 C.ar    1  ZINC000512239524   -0.1200
     18 C18        -2.9380    2.9237   51.5138 C.ar    1  ZINC000512239524   -0.1100
     19 C19        -3.2137    3.4056   50.2479 C.ar    1  ZINC000512239524   -0.1200
     20 C20        -4.4825    3.2676   49.7170 C.ar    1  ZINC000512239524   -0.1100
     21 C21        -8.3202    3.6928   51.5859 C.3     1  ZINC000512239524    0.0700
     22 C22        -8.5019    4.9113   50.6787 C.3     1  ZINC000512239524   -0.1900
     23 C23        -9.7266    4.1692   51.2173 C.3     1  ZINC000512239524   -0.2000
     24 C24       -10.1632   -0.0562   52.3714 C.3     1  ZINC000512239524   -0.1400
     25 C25       -11.2048   -0.0966   53.4876 C.3     1  ZINC000512239524    0.1100
     26 C26        -9.1054   -2.6318   58.1261 C.ar    1  ZINC000512239524   -0.0800
     27 C27        -7.8436   -2.0807   58.2845 C.ar    1  ZINC000512239524   -0.1400
     28 C28        -6.7512   -2.9199   58.4004 C.ar    1  ZINC000512239524    0.1000
     29 N29        -6.8982   -4.2295   58.3614 N.ar    1  ZINC000512239524   -0.4600
     30 C30        -8.0822   -4.7907   58.2120 C.ar    1  ZINC000512239524    0.0800
     31 C31        -9.2228   -4.0153   58.0951 C.ar    1  ZINC000512239524    0.0600
     32 F32       -10.4328   -4.5963   57.9423 F       1  ZINC000512239524   -0.1200
     33 H33       -11.4531   -0.3949   59.2298 H       1  ZINC000512239524    0.0700
     34 H34       -10.7403   -1.7682   60.1097 H       1  ZINC000512239524    0.0700
     35 H35        -9.7073   -0.4205   59.5757 H       1  ZINC000512239524    0.0600
     36 H36        -9.4943   -0.0172   57.0921 H       1  ZINC000512239524    0.3900
     37 H37       -10.1727    2.0869   54.9980 H       1  ZINC000512239524    0.0700
     38 H38        -9.0960    1.0342   55.9519 H       1  ZINC000512239524    0.1000
     39 H39        -7.9547    2.0656   53.9554 H       1  ZINC000512239524    0.0900
     40 H40        -7.9560    0.2855   53.9181 H       1  ZINC000512239524    0.0800
     41 H41        -9.9533    2.0856   52.4724 H       1  ZINC000512239524    0.1000
     42 H42        -6.9173    1.5917   49.2937 H       1  ZINC000512239524    0.0900
     43 H43        -7.0809    3.3632   49.2370 H       1  ZINC000512239524    0.1000
     44 H44        -5.9788    1.6916   52.2967 H       1  ZINC000512239524    0.1300
     45 H45        -3.7167    1.9307   53.2394 H       1  ZINC000512239524    0.1200
     46 H46        -1.9459    3.0290   51.9275 H       1  ZINC000512239524    0.1200
     47 H47        -2.4371    3.8874   49.6724 H       1  ZINC000512239524    0.1200
     48 H48        -4.6980    3.6442   48.7279 H       1  ZINC000512239524    0.1200
     49 H49        -7.9800    3.8708   52.6061 H       1  ZINC000512239524    0.1300
     50 H50        -8.2810    5.8912   51.1019 H       1  ZINC000512239524    0.1100
     51 H51        -8.2654    4.7914   49.6215 H       1  ZINC000512239524    0.1000
     52 H52       -10.2959    3.5610   50.5143 H       1  ZINC000512239524    0.1100
     53 H53       -10.3115    4.6608   51.9946 H       1  ZINC000512239524    0.1000
     54 H54       -10.6650   -0.0462   51.4039 H       1  ZINC000512239524    0.0900
     55 H55        -9.5244   -0.9367   52.4415 H       1  ZINC000512239524    0.0700
     56 H56       -11.7482   -1.0405   53.4462 H       1  ZINC000512239524    0.0800
     57 H57       -11.9008    0.7337   53.3682 H       1  ZINC000512239524    0.0800
     58 H58        -7.7154   -1.0089   58.3167 H       1  ZINC000512239524    0.1400
     59 H59        -5.7650   -2.4974   58.5241 H       1  ZINC000512239524    0.1700
     60 H60        -8.1632   -5.8673   58.1843 H       1  ZINC000512239524    0.1700
@<TRIPOS>BOND
     1     1     2    1
     2     1    33    1
     3     1    34    1
     4     1    35    1
     5     2     3    1
     6     2     4    1
     7     2    26    1
     8     4     5   am
     9     4    36    1
    10     5     6    2
    11     5     7   am
    12     7    25    1
    13     7     8    1
    14     8     9    1
    15     8    37    1
    16     8    38    1
    17     9    10    1
    18     9    39    1
    19     9    40    1
    20    10    11    1
    21    10    24    1
    22    10    41    1
    23    11    12    2
    24    11    13   am
    25    13    14    1
    26    13    21    1
    27    14    15    1
    28    14    42    1
    29    14    43    1
    30    15    20   ar
    31    15    16   ar
    32    16    17   ar
    33    16    44    1
    34    17    18   ar
    35    17    45    1
    36    18    19   ar
    37    18    46    1
    38    19    20   ar
    39    19    47    1
    40    20    48    1
    41    21    23    1
    42    21    22    1
    43    21    49    1
    44    22    23    1
    45    22    50    1
    46    22    51    1
    47    23    52    1
    48    23    53    1
    49    24    25    1
    50    24    54    1
    51    24    55    1
    52    25    56    1
    53    25    57    1
    54    26    31   ar
    55    26    27   ar
    56    27    28   ar
    57    27    58    1
    58    28    29   ar
    59    28    59    1
    60    29    30   ar
    61    30    31   ar
    62    30    60    1
    63    31    32    1
@<TRIPOS>SUBSTRUCTURE
     1 ZINC000512239524        1 TEMP              0 ****  ****    0 ROOT


##########                                Name:    ZINC000011620562
##########                DOCK_Rotatable_Bonds:                   9
##########                         Heavy_Atoms:                  29
##########                    Molecular_Weight:             417.448
##########                DOCK_Rotatable_Bonds:                   9
##########                       Formal_Charge:           0.0299999
##########                     HBond_Acceptors:                  12
##########                        HBond_Donors:                   1
##########                         Heavy_Atoms:                  29
##########                          Grid_Score:          -35.394783
##########                     Grid_vdw_energy:          -35.108341
##########                      Grid_es_energy:           -0.286440
##########           Internal_energy_repulsive:            8.258861

@<TRIPOS>MOLECULE
ZINC000011620562
 48 50 1 0 0
SMALL
USER_CHARGES


@<TRIPOS>ATOM
      1 C1         -6.9942    2.8236   49.9387 C.3     1  ZINC000011620562    0.0400
      2 O2         -6.7860    1.3932   50.0760 O.3     1  ZINC000011620562   -0.3500
      3 C3         -7.5850    0.7407   50.9349 C.2     1  ZINC000011620562    0.4600
      4 O4         -7.4499   -0.4484   51.1014 O.2     1  ZINC000011620562   -0.5000
      5 C5         -8.6504    1.4913   51.6915 C.3     1  ZINC000011620562    0.1300
      6 N6         -9.7335    0.5724   52.0504 N.am    1  ZINC000011620562   -0.7200
      7 C7        -10.7014    0.9706   52.8997 C.2     1  ZINC000011620562    0.5400
      8 O8        -10.6765    2.0901   53.3656 O.2     1  ZINC000011620562   -0.5200
      9 C9        -11.8146    0.0248   53.2702 C.3     1  ZINC000011620562   -0.1600
     10 S10       -12.5887    0.5780   54.8099 S.3     1  ZINC000011620562    0.1400
     11 C11       -13.7526   -0.7227   55.0517 C.2     1  ZINC000011620562    0.2100
     12 N12       -14.8520   -0.9275   54.3580 N.2     1  ZINC000011620562   -0.3400
     13 N13       -15.4725   -1.9636   54.7944 N.2     1  ZINC000011620562   -0.0300
     14 N14       -14.8300   -2.4895   55.7804 N.2     1  ZINC000011620562   -0.0800
     15 N15       -13.6815   -1.7045   55.9835 N.pl3   1  ZINC000011620562   -0.2600
     16 C16       -12.6767   -1.8935   56.9517 C.2     1  ZINC000011620562   -0.1300
     17 C17       -12.7691   -1.5827   58.2646 C.2     1  ZINC000011620562    0.2500
     18 C18       -13.9678   -0.9728   58.9443 C.3     1  ZINC000011620562   -0.1100
     19 N19       -11.5880   -1.9167   58.8708 N.pl3   1  ZINC000011620562   -0.3700
     20 C20       -11.2728   -1.7431   60.2909 C.3     1  ZINC000011620562    0.0900
     21 N21       -10.7329   -2.4537   57.8997 N.am    1  ZINC000011620562   -0.3600
     22 C22        -9.4309   -2.9169   58.1136 C.ar    1  ZINC000011620562    0.1400
     23 C23        -8.3781   -2.0156   58.2065 C.ar    1  ZINC000011620562   -0.1300
     24 C24        -7.0935   -2.4763   58.4184 C.ar    1  ZINC000011620562   -0.1000
     25 C25        -6.8548   -3.8331   58.5380 C.ar    1  ZINC000011620562   -0.1100
     26 C26        -7.9007   -4.7331   58.4456 C.ar    1  ZINC000011620562   -0.1000
     27 C27        -9.1885   -4.2786   58.2396 C.ar    1  ZINC000011620562   -0.1000
     28 C28       -11.3913   -2.4492   56.7228 C.2     1  ZINC000011620562    0.5500
     29 O29       -10.9584   -2.8437   55.6552 O.2     1  ZINC000011620562   -0.5000
     30 H30        -6.8434    3.3069   50.9040 H       1  ZINC000011620562    0.0700
     31 H31        -6.2846    3.2263   49.2159 H       1  ZINC000011620562    0.1100
     32 H32        -8.0108    3.0113   49.5932 H       1  ZINC000011620562    0.0700
     33 H33        -8.2204    1.9176   52.5979 H       1  ZINC000011620562    0.1200
     34 H34        -9.0452    2.2915   51.0655 H       1  ZINC000011620562    0.1200
     35 H35        -9.7542   -0.3224   51.6767 H       1  ZINC000011620562    0.4200
     36 H36       -12.5590    0.0102   52.4741 H       1  ZINC000011620562    0.1400
     37 H37       -11.4092   -0.9777   53.4071 H       1  ZINC000011620562    0.1400
     38 H38       -14.7601   -0.8163   58.2123 H       1  ZINC000011620562    0.1000
     39 H39       -14.3228   -1.6442   59.7262 H       1  ZINC000011620562    0.1000
     40 H40       -13.6874   -0.0167   59.3863 H       1  ZINC000011620562    0.1000
     41 H41       -12.1155   -1.2699   60.7949 H       1  ZINC000011620562    0.1100
     42 H42       -11.0797   -2.7165   60.7419 H       1  ZINC000011620562    0.0900
     43 H43       -10.3887   -1.1137   60.3925 H       1  ZINC000011620562    0.0900
     44 H44        -8.5638   -0.9558   58.1128 H       1  ZINC000011620562    0.1300
     45 H45        -6.2743   -1.7761   58.4903 H       1  ZINC000011620562    0.1300
     46 H46        -5.8493   -4.1907   58.7038 H       1  ZINC000011620562    0.1300
     47 H47        -7.7108   -5.7921   58.5389 H       1  ZINC000011620562    0.1400
     48 H48       -10.0049   -4.9820   58.1678 H       1  ZINC000011620562    0.1400
@<TRIPOS>BOND
     1     1     2    1
     2     1    30    1
     3     1    31    1
     4     1    32    1
     5     2     3    1
     6     3     4    2
     7     3     5    1
     8     5     6    1
     9     5    33    1
    10     5    34    1
    11     6     7   am
    12     6    35    1
    13     7     8    2
    14     7     9    1
    15     9    10    1
    16     9    36    1
    17     9    37    1
    18    10    11    1
    19    11    15    1
    20    11    12    2
    21    12    13    1
    22    13    14    2
    23    14    15    1
    24    15    16    1
    25    16    28    1
    26    16    17    2
    27    17    18    1
    28    17    19    1
    29    18    38    1
    30    18    39    1
    31    18    40    1
    32    19    20    1
    33    19    21    1
    34    20    41    1
    35    20    42    1
    36    20    43    1
    37    21    22    1
    38    21    28   am
    39    22    27   ar
    40    22    23   ar
    41    23    24   ar
    42    23    44    1
    43    24    25   ar
    44    24    45    1
    45    25    26   ar
    46    25    46    1
    47    26    27   ar
    48    26    47    1
    49    27    48    1
    50    28    29    2
@<TRIPOS>SUBSTRUCTURE
     1 ZINC000011620562        1 TEMP              0 ****  ****    0 ROOT


##########                                Name:    ZINC001347442583
##########                DOCK_Rotatable_Bonds:                   9
##########                         Heavy_Atoms:                  27
##########                    Molecular_Weight:             370.492
##########                DOCK_Rotatable_Bonds:                   9
##########                       Formal_Charge:          -0.0400009
##########                     HBond_Acceptors:                   5
##########                        HBond_Donors:                   1
##########                         Heavy_Atoms:                  27
##########                          Grid_Score:          -35.342144
##########                     Grid_vdw_energy:          -34.288380
##########                      Grid_es_energy:           -1.053764
##########           Internal_energy_repulsive:            9.434845

@<TRIPOS>MOLECULE
ZINC001347442583
 57 60 1 0 0
SMALL
USER_CHARGES


@<TRIPOS>ATOM
      1 O1         -5.8137    2.5620   49.2906 O.2     1  ZINC001347442583   -0.5400
      2 C2         -5.2760    2.0875   50.2687 C.2     1  ZINC001347442583    0.5400
      3 C3         -5.9235    0.9421   51.0033 C.3     1  ZINC001347442583   -0.1400
      4 C4         -7.4099    0.8820   50.6456 C.3     1  ZINC001347442583   -0.1000
      5 C5         -8.1492    0.0302   51.6795 C.3     1  ZINC001347442583   -0.1100
      6 C6         -8.9121    0.9437   52.6411 C.3     1  ZINC001347442583   -0.0800
      7 C7         -9.8922    0.1245   53.4408 C.ar    1  ZINC001347442583   -0.0800
      8 C8         -9.4657   -0.5635   54.5614 C.ar    1  ZINC001347442583   -0.1200
      9 C9        -10.3648   -1.3148   55.2949 C.ar    1  ZINC001347442583   -0.1200
     10 C10       -11.6904   -1.3778   54.9081 C.ar    1  ZINC001347442583   -0.1300
     11 C11       -12.1171   -0.6890   53.7881 C.ar    1  ZINC001347442583   -0.1200
     12 C12       -11.2189    0.0658   53.0571 C.ar    1  ZINC001347442583   -0.1200
     13 N13        -4.0966    2.5810   50.6954 N.am    1  ZINC001347442583   -0.6300
     14 C14        -3.2269    2.1837   51.8542 C.3     1  ZINC001347442583    0.1200
     15 H15        -3.5982    1.3630   52.4679 H       1  ZINC001347442583    0.1200
     16 C16        -3.0621    3.5496   52.5862 C.3     1  ZINC001347442583   -0.1300
     17 C17        -3.0758    4.5810   51.4311 C.3     1  ZINC001347442583   -0.1300
     18 C18        -3.2438    3.6934   50.1548 C.3     1  ZINC001347442583    0.1200
     19 H19        -3.6324    4.2048   49.2741 H       1  ZINC001347442583    0.1200
     20 C20        -1.8673    2.9866   49.9690 C.3     1  ZINC001347442583    0.1300
     21 H21        -1.0513    3.7022   50.0699 H       1  ZINC001347442583    0.1100
     22 N22        -1.8038    2.3139   48.6690 N.am    1  ZINC001347442583   -0.7200
     23 C23        -1.0445    2.8274   47.6810 C.2     1  ZINC001347442583    0.5300
     24 O24        -0.4126    3.8454   47.8685 O.2     1  ZINC001347442583   -0.5300
     25 C25        -0.9807    2.1363   46.3432 C.3     1  ZINC001347442583   -0.1500
     26 H26        -0.1324    2.4978   45.7620 H       1  ZINC001347442583    0.1100
     27 C27        -0.9128    0.5949   46.5202 C.3     1  ZINC001347442583   -0.1400
     28 C28        -1.5669    0.1181   45.1989 C.3     1  ZINC001347442583    0.0500
     29 O29        -2.6053    1.0730   44.9286 O.3     1  ZINC001347442583   -0.3800
     30 C30        -2.3003    2.3238   45.5644 C.3     1  ZINC001347442583    0.0700
     31 C31        -1.8696    1.9237   51.1337 C.3     1  ZINC001347442583   -0.1400
     32 H32        -5.4424    0.0073   50.7153 H       1  ZINC001347442583    0.0900
     33 H33        -5.8141    1.0911   52.0775 H       1  ZINC001347442583    0.0900
     34 H34        -7.8239    1.8903   50.6425 H       1  ZINC001347442583    0.0700
     35 H35        -7.5281    0.4377   49.6573 H       1  ZINC001347442583    0.0700
     36 H36        -8.8518   -0.6299   51.1710 H       1  ZINC001347442583    0.0600
     37 H37        -7.4297   -0.5670   52.2396 H       1  ZINC001347442583    0.0600
     38 H38        -8.2079    1.4292   53.3167 H       1  ZINC001347442583    0.0700
     39 H39        -9.4510    1.7012   52.0721 H       1  ZINC001347442583    0.0700
     40 H40        -8.4301   -0.5144   54.8635 H       1  ZINC001347442583    0.1200
     41 H41       -10.0314   -1.8530   56.1699 H       1  ZINC001347442583    0.1200
     42 H42       -12.3927   -1.9654   55.4808 H       1  ZINC001347442583    0.1200
     43 H43       -13.1528   -0.7384   53.4858 H       1  ZINC001347442583    0.1200
     44 H44       -11.5523    0.6040   52.1820 H       1  ZINC001347442583    0.1200
     45 H45        -3.8959    3.7238   53.2664 H       1  ZINC001347442583    0.0700
     46 H46        -2.1138    3.5861   53.1222 H       1  ZINC001347442583    0.0800
     47 H47        -3.9163    5.2667   51.5386 H       1  ZINC001347442583    0.0800
     48 H48        -2.1343    5.1289   51.3944 H       1  ZINC001347442583    0.0800
     49 H49        -2.3083    1.4990   48.5196 H       1  ZINC001347442583    0.4000
     50 H50         0.1197    0.2529   46.5931 H       1  ZINC001347442583    0.0900
     51 H51        -1.4934    0.2727   47.3845 H       1  ZINC001347442583    0.0900
     52 H52        -0.8336    0.1180   44.3923 H       1  ZINC001347442583    0.0700
     53 H53        -1.9920   -0.8776   45.3250 H       1  ZINC001347442583    0.0900
     54 H54        -3.0995    2.5919   46.2554 H       1  ZINC001347442583    0.0700
     55 H55        -2.1844    3.1029   44.8110 H       1  ZINC001347442583    0.0800
     56 H56        -1.0484    2.1105   51.8256 H       1  ZINC001347442583    0.0900
     57 H57        -1.8113    0.9126   50.7309 H       1  ZINC001347442583    0.0800
@<TRIPOS>BOND
     1     1     2    2
     2     2     3    1
     3     2    13   am
     4     3     4    1
     5     3    32    1
     6     3    33    1
     7     4     5    1
     8     4    34    1
     9     4    35    1
    10     5     6    1
    11     5    36    1
    12     5    37    1
    13     6     7    1
    14     6    38    1
    15     6    39    1
    16     7    12   ar
    17     7     8   ar
    18     8     9   ar
    19     8    40    1
    20     9    10   ar
    21     9    41    1
    22    10    11   ar
    23    10    42    1
    24    11    12   ar
    25    11    43    1
    26    12    44    1
    27    13    18    1
    28    13    14    1
    29    14    15    1
    30    14    31    1
    31    14    16    1
    32    16    17    1
    33    16    45    1
    34    16    46    1
    35    17    18    1
    36    17    47    1
    37    17    48    1
    38    18    19    1
    39    18    20    1
    40    20    21    1
    41    20    22    1
    42    20    31    1
    43    22    23   am
    44    22    49    1
    45    23    24    2
    46    23    25    1
    47    25    26    1
    48    25    30    1
    49    25    27    1
    50    27    28    1
    51    27    50    1
    52    27    51    1
    53    28    29    1
    54    28    52    1
    55    28    53    1
    56    29    30    1
    57    30    54    1
    58    30    55    1
    59    31    56    1
    60    31    57    1
@<TRIPOS>SUBSTRUCTURE
     1 ZINC001347442583        1 TEMP              0 ****  ****    0 ROOT


##########                                Name:    ZINC000509132103
##########                DOCK_Rotatable_Bonds:                   7
##########                         Heavy_Atoms:                  29
##########                    Molecular_Weight:              405.52
##########                DOCK_Rotatable_Bonds:                   7
##########                       Formal_Charge:          -0.0499998
##########                     HBond_Acceptors:                   6
##########                        HBond_Donors:                   0
##########                         Heavy_Atoms:                  29
##########                          Grid_Score:          -35.327667
##########                     Grid_vdw_energy:          -33.654419
##########                      Grid_es_energy:           -1.673247
##########           Internal_energy_repulsive:           12.039492

@<TRIPOS>MOLECULE
ZINC000509132103
 52 55 1 0 0
SMALL
USER_CHARGES


@<TRIPOS>ATOM
      1 C1         -6.6776    1.4055   50.3574 C.3     1  ZINC000509132103    0.0300
      2 O2         -5.3559    1.4834   50.8953 O.3     1  ZINC000509132103   -0.3000
      3 C3         -5.2313    1.9734   52.1545 C.ar    1  ZINC000509132103    0.2700
      4 C4         -3.9714    2.1015   52.7331 C.ar    1  ZINC000509132103   -0.1300
      5 C5         -3.8973    2.6074   54.0223 C.ar    1  ZINC000509132103   -0.0700
      6 C6         -5.0818    2.9543   54.6554 C.ar    1  ZINC000509132103    0.0500
      7 C7         -5.0533    3.5088   56.0564 C.3     1  ZINC000509132103   -0.0500
      8 S8         -6.7157    3.4179   56.7766 S.3     1  ZINC000509132103   -0.1500
      9 C9         -6.8415    1.6843   57.2955 C.3     1  ZINC000509132103   -0.1300
     10 C10        -8.2927    1.3139   57.4623 C.2     1  ZINC000509132103    0.5400
     11 O11        -9.1568    2.0136   56.9778 O.2     1  ZINC000509132103   -0.5100
     12 N12        -8.6304    0.2050   58.1499 N.am    1  ZINC000509132103   -0.6100
     13 C13        -7.6095   -0.6622   58.7479 C.3     1  ZINC000509132103    0.1500
     14 C14        -7.9443   -2.1063   58.4708 C.ar    1  ZINC000509132103   -0.1000
     15 C15        -6.9740   -3.0600   58.7450 C.ar    1  ZINC000509132103   -0.1100
     16 C16        -7.2249   -4.3987   58.5221 C.ar    1  ZINC000509132103   -0.1200
     17 C17        -8.4525   -4.7920   58.0234 C.ar    1  ZINC000509132103   -0.1200
     18 C18        -9.4163   -3.8446   57.7468 C.ar    1  ZINC000509132103   -0.1100
     19 C19        -9.1644   -2.4958   57.9645 C.ar    1  ZINC000509132103   -0.0600
     20 C20       -10.2537   -1.5166   57.6142 C.3     1  ZINC000509132103   -0.0200
     21 H21       -10.2520   -1.3487   56.5372 H       1  ZINC000509132103    0.1000
     22 C22       -11.5859   -2.0895   58.0243 C.ar    1  ZINC000509132103   -0.0800
     23 C23       -11.7939   -2.4877   59.3316 C.ar    1  ZINC000509132103   -0.1100
     24 C24       -13.0159   -3.0132   59.7078 C.ar    1  ZINC000509132103   -0.1200
     25 C25       -14.0299   -3.1402   58.7769 C.ar    1  ZINC000509132103   -0.1200
     26 C26       -13.8220   -2.7411   57.4698 C.ar    1  ZINC000509132103   -0.1200
     27 C27       -12.6015   -2.2116   57.0945 C.ar    1  ZINC000509132103   -0.1100
     28 C28       -10.0389   -0.1811   58.3360 C.3     1  ZINC000509132103    0.1200
     29 N29        -6.2325    2.7990   54.0309 N.ar    1  ZINC000509132103   -0.1900
     30 N30        -6.3064    2.3365   52.8359 N.ar    1  ZINC000509132103   -0.3000
     31 H31        -7.1175    2.4024   50.3286 H       1  ZINC000509132103    0.0600
     32 H32        -6.6354    0.9978   49.3474 H       1  ZINC000509132103    0.1000
     33 H33        -7.2880    0.7570   50.9858 H       1  ZINC000509132103    0.0600
     34 H34        -3.0798    1.8157   52.1950 H       1  ZINC000509132103    0.1600
     35 H35        -2.9457    2.7275   54.5186 H       1  ZINC000509132103    0.1600
     36 H36        -4.3617    2.9254   56.6641 H       1  ZINC000509132103    0.1100
     37 H37        -4.7255    4.5480   56.0292 H       1  ZINC000509132103    0.1000
     38 H38        -6.3878    1.0447   56.5385 H       1  ZINC000509132103    0.1100
     39 H39        -6.3209    1.5502   58.2438 H       1  ZINC000509132103    0.1100
     40 H40        -6.6361   -0.4265   58.3176 H       1  ZINC000509132103    0.1000
     41 H41        -7.5789   -0.4970   59.8248 H       1  ZINC000509132103    0.0900
     42 H42        -6.0152   -2.7522   59.1353 H       1  ZINC000509132103    0.1200
     43 H43        -6.4653   -5.1358   58.7367 H       1  ZINC000509132103    0.1300
     44 H44        -8.6565   -5.8383   57.8503 H       1  ZINC000509132103    0.1200
     45 H45       -10.3749   -4.1540   57.3573 H       1  ZINC000509132103    0.1200
     46 H46       -11.0018   -2.3885   60.0590 H       1  ZINC000509132103    0.1200
     47 H47       -13.1783   -3.3250   60.7290 H       1  ZINC000509132103    0.1200
     48 H48       -14.9843   -3.5515   59.0706 H       1  ZINC000509132103    0.1200
     49 H49       -14.6141   -2.8406   56.7423 H       1  ZINC000509132103    0.1200
     50 H50       -12.4391   -1.8999   56.0733 H       1  ZINC000509132103    0.1200
     51 H51       -10.2578   -0.2964   59.3976 H       1  ZINC000509132103    0.0800
     52 H52       -10.6896    0.5798   57.9052 H       1  ZINC000509132103    0.1000
@<TRIPOS>BOND
     1     1     2    1
     2     1    31    1
     3     1    32    1
     4     1    33    1
     5     2     3    1
     6     3    30   ar
     7     3     4   ar
     8     4     5   ar
     9     4    34    1
    10     5     6   ar
    11     5    35    1
    12     6     7    1
    13     6    29   ar
    14     7     8    1
    15     7    36    1
    16     7    37    1
    17     8     9    1
    18     9    10    1
    19     9    38    1
    20     9    39    1
    21    10    11    2
    22    10    12   am
    23    12    28    1
    24    12    13    1
    25    13    14    1
    26    13    40    1
    27    13    41    1
    28    14    19   ar
    29    14    15   ar
    30    15    16   ar
    31    15    42    1
    32    16    17   ar
    33    16    43    1
    34    17    18   ar
    35    17    44    1
    36    18    19   ar
    37    18    45    1
    38    19    20    1
    39    20    21    1
    40    20    22    1
    41    20    28    1
    42    22    27   ar
    43    22    23   ar
    44    23    24   ar
    45    23    46    1
    46    24    25   ar
    47    24    47    1
    48    25    26   ar
    49    25    48    1
    50    26    27   ar
    51    26    49    1
    52    27    50    1
    53    28    51    1
    54    28    52    1
    55    29    30   ar
@<TRIPOS>SUBSTRUCTURE
     1 ZINC000509132103        1 TEMP              0 ****  ****    0 ROOT


##########                                Name:    ZINC000474251633
##########                DOCK_Rotatable_Bonds:                   8
##########                         Heavy_Atoms:                  28
##########                    Molecular_Weight:             416.931
##########                DOCK_Rotatable_Bonds:                   8
##########                       Formal_Charge:          0.00999953
##########                     HBond_Acceptors:                   8
##########                        HBond_Donors:                   2
##########                         Heavy_Atoms:                  28
##########                          Grid_Score:          -35.272991
##########                     Grid_vdw_energy:          -34.134697
##########                      Grid_es_energy:           -1.138296
##########           Internal_energy_repulsive:            7.359162

@<TRIPOS>MOLECULE
ZINC000474251633
 49 52 1 0 0
SMALL
USER_CHARGES


@<TRIPOS>ATOM
      1 O1         -6.1631    2.5844   53.0572 O.2     1  ZINC000474251633   -0.5300
      2 C2         -5.3595    2.5973   53.9655 C.2     1  ZINC000474251633    0.5100
      3 C3         -3.8895    2.7468   53.6690 C.3     1  ZINC000474251633    0.1000
      4 N4         -3.6123    2.2591   52.3157 N.am    1  ZINC000474251633   -0.7100
      5 C5         -2.4011    2.4630   51.7608 C.2     1  ZINC000474251633    0.5900
      6 O6         -1.5374    3.0508   52.3844 O.2     1  ZINC000474251633   -0.5000
      7 C7         -2.1239    1.9757   50.4037 C.2     1  ZINC000474251633   -0.2300
      8 C8         -2.8292    2.3094   49.3164 C.2     1  ZINC000474251633    0.0400
      9 Cl9        -4.1888    3.3865   49.3890 Cl      1  ZINC000474251633   -0.0100
     10 C10        -2.3951    1.7300   48.1117 C.ar    1  ZINC000474251633   -0.0900
     11 C11        -2.9270    1.8856   46.8098 C.ar    1  ZINC000474251633   -0.0600
     12 C12        -2.3672    1.2376   45.7537 C.ar    1  ZINC000474251633   -0.1200
     13 C13        -1.2643    0.4119   45.9322 C.ar    1  ZINC000474251633   -0.0800
     14 C14        -0.7252    0.2403   47.1846 C.ar    1  ZINC000474251633   -0.0900
     15 C15        -1.2832    0.8966   48.2864 C.ar    1  ZINC000474251633   -0.1200
     16 S16        -0.8179    0.8817   49.9836 S.3     1  ZINC000474251633    0.1700
     17 N17        -5.7815    2.4835   55.2405 N.am    1  ZINC000474251633   -0.7200
     18 C18        -7.2105    2.3382   55.5287 C.3     1  ZINC000474251633    0.2100
     19 C19        -7.3874    1.6487   56.8571 C.2     1  ZINC000474251633    0.0500
     20 N20        -7.6518    0.3796   57.0335 N.2     1  ZINC000474251633   -0.2700
     21 N21        -7.7379    0.1378   58.4106 N.pl3   1  ZINC000474251633   -0.3600
     22 C22        -8.0189   -1.1536   59.0431 C.3     1  ZINC000474251633    0.1500
     23 C23        -9.5420   -1.3508   59.1875 C.3     1  ZINC000474251633   -0.1400
     24 C24        -9.9375   -2.1810   57.9412 C.3     1  ZINC000474251633   -0.1300
     25 C25        -8.7416   -3.1527   57.7843 C.3     1  ZINC000474251633   -0.1200
     26 C26        -7.5100   -2.2993   58.1508 C.3     1  ZINC000474251633   -0.1400
     27 C27        -7.5162    1.3043   59.0518 C.2     1  ZINC000474251633    0.0600
     28 C28        -7.2913    2.2539   58.1144 C.2     1  ZINC000474251633   -0.2600
     29 H29        -3.6094    3.7978   53.7409 H       1  ZINC000474251633    0.1100
     30 H30        -3.3127    2.1668   54.3894 H       1  ZINC000474251633    0.1100
     31 H31        -4.3005    1.7894   51.8189 H       1  ZINC000474251633    0.4100
     32 H32        -3.7843    2.5236   46.6538 H       1  ZINC000474251633    0.1300
     33 H33        -2.7844    1.3658   44.7659 H       1  ZINC000474251633    0.1400
     34 H34        -0.8296   -0.0968   45.0844 H       1  ZINC000474251633    0.1400
     35 H35         0.1319   -0.4032   47.3184 H       1  ZINC000474251633    0.1400
     36 H36        -5.1391    2.4978   55.9671 H       1  ZINC000474251633    0.4100
     37 H37        -7.6757    3.3232   55.5658 H       1  ZINC000474251633    0.0900
     38 H38        -7.6806    1.7436   54.7454 H       1  ZINC000474251633    0.0900
     39 H39        -7.5410   -1.2017   60.0215 H       1  ZINC000474251633    0.1100
     40 H40        -9.7706   -1.9007   60.1005 H       1  ZINC000474251633    0.0900
     41 H41       -10.0535   -0.3882   59.1828 H       1  ZINC000474251633    0.0800
     42 H42       -10.8613   -2.7310   58.1206 H       1  ZINC000474251633    0.0800
     43 H43       -10.0322   -1.5403   57.0645 H       1  ZINC000474251633    0.0700
     44 H44        -8.8409   -3.9937   58.4705 H       1  ZINC000474251633    0.0700
     45 H45        -8.6690   -3.5052   56.7554 H       1  ZINC000474251633    0.0700
     46 H46        -7.0539   -1.8945   57.2474 H       1  ZINC000474251633    0.0700
     47 H47        -6.7857   -2.9039   58.6965 H       1  ZINC000474251633    0.0800
     48 H48        -7.5143    1.4525   60.1216 H       1  ZINC000474251633    0.1700
     49 H49        -7.0809    3.2962   58.3035 H       1  ZINC000474251633    0.1500
@<TRIPOS>BOND
     1     1     2    2
     2     2     3    1
     3     2    17   am
     4     3     4    1
     5     3    29    1
     6     3    30    1
     7     4     5   am
     8     4    31    1
     9     5     6    2
    10     5     7    1
    11     7    16    1
    12     7     8    2
    13     8     9    1
    14     8    10    1
    15    10    15   ar
    16    10    11   ar
    17    11    12   ar
    18    11    32    1
    19    12    13   ar
    20    12    33    1
    21    13    14   ar
    22    13    34    1
    23    14    15   ar
    24    14    35    1
    25    15    16    1
    26    17    18    1
    27    17    36    1
    28    18    19    1
    29    18    37    1
    30    18    38    1
    31    19    28    1
    32    19    20    2
    33    20    21    1
    34    21    22    1
    35    21    27    1
    36    22    26    1
    37    22    23    1
    38    22    39    1
    39    23    24    1
    40    23    40    1
    41    23    41    1
    42    24    25    1
    43    24    42    1
    44    24    43    1
    45    25    26    1
    46    25    44    1
    47    25    45    1
    48    26    46    1
    49    26    47    1
    50    27    28    2
    51    27    48    1
    52    28    49    1
@<TRIPOS>SUBSTRUCTURE
     1 ZINC000474251633        1 TEMP              0 ****  ****    0 ROOT


##########                                Name:    ZINC000442010511
##########                DOCK_Rotatable_Bonds:                  11
##########                         Heavy_Atoms:                  31
##########                    Molecular_Weight:             422.481
##########                DOCK_Rotatable_Bonds:                  11
##########                       Formal_Charge:          -0.0200005
##########                     HBond_Acceptors:                   7
##########                        HBond_Donors:                   2
##########                         Heavy_Atoms:                  31
##########                          Grid_Score:          -35.174988
##########                     Grid_vdw_energy:          -33.847927
##########                      Grid_es_energy:           -1.327060
##########           Internal_energy_repulsive:           11.851598

@<TRIPOS>MOLECULE
ZINC000442010511
 57 59 1 0 0
SMALL
USER_CHARGES


@<TRIPOS>ATOM
      1 C1        -17.8354   -2.6826   52.8814 C.3     1  ZINC000442010511   -0.1500
      2 C2        -16.8737   -1.5308   52.5827 C.3     1  ZINC000442010511   -0.0500
      3 C3        -15.8986   -1.3821   53.7221 C.2     1  ZINC000442010511    0.0000
      4 C4        -14.6947   -0.7860   53.6545 C.2     1  ZINC000442010511   -0.2100
      5 C5        -14.1219   -0.8723   54.9442 C.2     1  ZINC000442010511   -0.1900
      6 C6        -15.0100   -1.5160   55.7228 C.2     1  ZINC000442010511   -0.0300
      7 C7        -14.8304   -1.8380   57.1840 C.3     1  ZINC000442010511    0.2400
      8 H8        -15.0947   -0.9667   57.7832 H       1  ZINC000442010511    0.1400
      9 C9        -15.7362   -3.0114   57.5628 C.3     1  ZINC000442010511    0.0500
     10 O10       -16.8415   -2.5314   58.3308 O.3     1  ZINC000442010511   -0.3800
     11 C11       -17.7071   -1.6483   57.6146 C.3     1  ZINC000442010511    0.0300
     12 N12       -13.4330   -2.1985   57.4365 N.am    1  ZINC000442010511   -0.6900
     13 C13       -12.9632   -2.2317   58.6992 C.2     1  ZINC000442010511    0.5200
     14 O14       -13.6973   -1.9616   59.6271 O.2     1  ZINC000442010511   -0.5100
     15 C15       -11.5393   -2.6008   58.9568 C.2     1  ZINC000442010511    0.5100
     16 O16       -11.1767   -2.8710   60.0833 O.2     1  ZINC000442010511   -0.5000
     17 N17       -10.6570   -2.6341   57.9386 N.am    1  ZINC000442010511   -0.6300
     18 C18        -9.3235   -2.9798   58.1798 C.ar    1  ZINC000442010511    0.1200
     19 C19        -8.9543   -4.3150   58.2589 C.ar    1  ZINC000442010511   -0.1000
     20 C20        -7.6358   -4.6540   58.4973 C.ar    1  ZINC000442010511   -0.1300
     21 C21        -6.6821   -3.6658   58.6576 C.ar    1  ZINC000442010511   -0.0900
     22 C22        -7.0419   -2.3330   58.5807 C.ar    1  ZINC000442010511   -0.1700
     23 C23        -8.3601   -1.9840   58.3358 C.ar    1  ZINC000442010511    0.1000
     24 O24        -8.7155   -0.6741   58.2599 O.3     1  ZINC000442010511   -0.2600
     25 C25        -7.9602    0.1480   57.4854 C.ar    1  ZINC000442010511    0.0800
     26 C26        -6.9755    0.9365   58.0634 C.ar    1  ZINC000442010511   -0.1300
     27 C27        -6.2087    1.7712   57.2738 C.ar    1  ZINC000442010511   -0.1100
     28 C28        -6.4221    1.8218   55.9085 C.ar    1  ZINC000442010511   -0.0800
     29 C29        -5.5844    2.7337   55.0496 C.3     1  ZINC000442010511   -0.1200
     30 C30        -7.4023    1.0368   55.3299 C.ar    1  ZINC000442010511   -0.1100
     31 C31        -8.1683    0.1964   56.1144 C.ar    1  ZINC000442010511   -0.1100
     32 O32       -16.0867   -1.8174   54.9787 O.3     1  ZINC000442010511   -0.1600
     33 H33       -17.2699   -3.6070   52.9987 H       1  ZINC000442010511    0.0600
     34 H34       -18.3808   -2.4712   53.8012 H       1  ZINC000442010511    0.0600
     35 H35       -18.5406   -2.7902   52.0574 H       1  ZINC000442010511    0.0700
     36 H36       -16.3282   -1.7421   51.6630 H       1  ZINC000442010511    0.0900
     37 H37       -17.4391   -0.6064   52.4654 H       1  ZINC000442010511    0.0800
     38 H38       -14.2506   -0.3295   52.7823 H       1  ZINC000442010511    0.1500
     39 H39       -13.1563   -0.4943   55.2462 H       1  ZINC000442010511    0.1500
     40 H40       -16.1048   -3.4930   56.6571 H       1  ZINC000442010511    0.0700
     41 H41       -15.1695   -3.7320   58.1526 H       1  ZINC000442010511    0.0700
     42 H42       -18.5201   -1.3286   58.2665 H       1  ZINC000442010511    0.0900
     43 H43       -17.1431   -0.7766   57.2828 H       1  ZINC000442010511    0.0400
     44 H44       -18.1184   -2.1663   56.7482 H       1  ZINC000442010511    0.0400
     45 H45       -12.8459   -2.4131   56.6947 H       1  ZINC000442010511    0.4200
     46 H46       -10.9469   -2.4181   57.0385 H       1  ZINC000442010511    0.4300
     47 H47        -9.6970   -5.0892   58.1344 H       1  ZINC000442010511    0.1600
     48 H48        -7.3497   -5.6936   58.5590 H       1  ZINC000442010511    0.1300
     49 H49        -5.6531   -3.9358   58.8437 H       1  ZINC000442010511    0.1300
     50 H50        -6.2944   -1.5639   58.7071 H       1  ZINC000442010511    0.1300
     51 H51        -6.8089    0.8980   59.1298 H       1  ZINC000442010511    0.1300
     52 H52        -5.4421    2.3851   57.7231 H       1  ZINC000442010511    0.1300
     53 H53        -4.6986    2.1984   54.7077 H       1  ZINC000442010511    0.0700
     54 H54        -6.1677    3.0585   54.1880 H       1  ZINC000442010511    0.0700
     55 H55        -5.2810    3.6038   55.6318 H       1  ZINC000442010511    0.0700
     56 H56        -7.5669    1.0782   54.2634 H       1  ZINC000442010511    0.1300
     57 H57        -8.9337   -0.4167   55.6619 H       1  ZINC000442010511    0.1300
@<TRIPOS>BOND
     1     1     2    1
     2     1    33    1
     3     1    34    1
     4     1    35    1
     5     2     3    1
     6     2    36    1
     7     2    37    1
     8     3    32    1
     9     3     4    2
    10     4     5    1
    11     4    38    1
    12     5     6    2
    13     5    39    1
    14     6     7    1
    15     6    32    1
    16     7     8    1
    17     7     9    1
    18     7    12    1
    19     9    10    1
    20     9    40    1
    21     9    41    1
    22    10    11    1
    23    11    42    1
    24    11    43    1
    25    11    44    1
    26    12    13   am
    27    12    45    1
    28    13    14    2
    29    13    15    1
    30    15    16    2
    31    15    17   am
    32    17    18    1
    33    17    46    1
    34    18    23   ar
    35    18    19   ar
    36    19    20   ar
    37    19    47    1
    38    20    21   ar
    39    20    48    1
    40    21    22   ar
    41    21    49    1
    42    22    23   ar
    43    22    50    1
    44    23    24    1
    45    24    25    1
    46    25    31   ar
    47    25    26   ar
    48    26    27   ar
    49    26    51    1
    50    27    28   ar
    51    27    52    1
    52    28    29    1
    53    28    30   ar
    54    29    53    1
    55    29    54    1
    56    29    55    1
    57    30    31   ar
    58    30    56    1
    59    31    57    1
@<TRIPOS>SUBSTRUCTURE
     1 ZINC000442010511        1 TEMP              0 ****  ****    0 ROOT


##########                                Name:    ZINC000762187039
##########                DOCK_Rotatable_Bonds:                   9
##########                         Heavy_Atoms:                  25
##########                    Molecular_Weight:             354.473
##########                DOCK_Rotatable_Bonds:                   9
##########                       Formal_Charge:        -1.78814e-07
##########                     HBond_Acceptors:                   5
##########                        HBond_Donors:                   1
##########                         Heavy_Atoms:                  25
##########                          Grid_Score:          -35.145596
##########                     Grid_vdw_energy:          -34.406116
##########                      Grid_es_energy:           -0.739480
##########           Internal_energy_repulsive:            6.418881

@<TRIPOS>MOLECULE
ZINC000762187039
 47 49 1 0 0
SMALL
USER_CHARGES


@<TRIPOS>ATOM
      1 C1         -2.1337    2.4344   51.1737 C.3     1  ZINC000762187039   -0.0800
      2 C2         -3.5333    2.4223   50.6150 C.2     1  ZINC000762187039    0.0500
      3 N3         -4.4378    1.5499   50.9075 N.2     1  ZINC000762187039   -0.4700
      4 C4         -5.6137    1.6860   50.3284 C.2     1  ZINC000762187039    0.0700
      5 C5         -6.7601    0.7406   50.5787 C.3     1  ZINC000762187039   -0.0300
      6 C6         -7.6101    1.2652   51.7376 C.3     1  ZINC000762187039   -0.1300
      7 C7         -8.8066    0.3691   51.9290 C.2     1  ZINC000762187039    0.5200
      8 O8         -8.7263   -0.8130   51.6700 O.2     1  ZINC000762187039   -0.5400
      9 N9         -9.9657    0.8814   52.3877 N.am    1  ZINC000762187039   -0.7300
     10 C10       -11.1292    0.0106   52.5721 C.3     1  ZINC000762187039    0.1200
     11 C11       -11.0960   -0.5944   53.9771 C.3     1  ZINC000762187039   -0.1300
     12 C12       -11.0130    0.5279   55.0137 C.3     1  ZINC000762187039    0.0600
     13 O13       -11.3991    0.0233   56.2938 O.3     1  ZINC000762187039   -0.3100
     14 C14       -10.7496   -1.0828   56.7423 C.ar    1  ZINC000762187039    0.1300
     15 C15       -11.4378   -2.2960   56.8372 C.ar    1  ZINC000762187039   -0.1900
     16 C16       -10.8151   -3.4203   57.2824 C.ar    1  ZINC000762187039   -0.0600
     17 C17        -9.4603   -3.3663   57.6531 C.ar    1  ZINC000762187039   -0.0800
     18 C18        -8.7858   -4.5086   58.1169 C.ar    1  ZINC000762187039   -0.0900
     19 C19        -7.4736   -4.4205   58.4669 C.ar    1  ZINC000762187039   -0.1300
     20 C20        -6.7852   -3.2122   58.3729 C.ar    1  ZINC000762187039   -0.1000
     21 C21        -7.4052   -2.0854   57.9284 C.ar    1  ZINC000762187039   -0.1200
     22 C22        -8.7602   -2.1372   57.5574 C.ar    1  ZINC000762187039   -0.0100
     23 C23        -9.4312   -0.9961   57.0894 C.ar    1  ZINC000762187039   -0.1500
     24 C24        -5.7062    2.7317   49.5012 C.2     1  ZINC000762187039   -0.2600
     25 S25        -4.1548    3.5668   49.5073 S.3     1  ZINC000762187039    0.1200
     26 H26        -1.5855    3.2818   50.7621 H       1  ZINC000762187039    0.0800
     27 H27        -2.1766    2.5222   52.2593 H       1  ZINC000762187039    0.0900
     28 H28        -1.6267    1.5080   50.9039 H       1  ZINC000762187039    0.0900
     29 H29        -7.3743    0.6685   49.6812 H       1  ZINC000762187039    0.0900
     30 H30        -6.3694   -0.2451   50.8319 H       1  ZINC000762187039    0.0900
     31 H31        -7.0140    1.2751   52.6501 H       1  ZINC000762187039    0.0900
     32 H32        -7.9465    2.2772   51.5124 H       1  ZINC000762187039    0.1000
     33 H33       -10.0294    1.8266   52.5959 H       1  ZINC000762187039    0.4000
     34 H34       -12.0422    0.5933   52.4490 H       1  ZINC000762187039    0.0700
     35 H35       -11.1058   -0.7889   51.8317 H       1  ZINC000762187039    0.0700
     36 H36       -12.0024   -1.1765   54.1435 H       1  ZINC000762187039    0.0800
     37 H37       -10.2250   -1.2427   54.0730 H       1  ZINC000762187039    0.0800
     38 H38        -9.9903    0.9013   55.0638 H       1  ZINC000762187039    0.0700
     39 H39       -11.6823    1.3386   54.7258 H       1  ZINC000762187039    0.0700
     40 H40       -12.4789   -2.3412   56.5532 H       1  ZINC000762187039    0.1300
     41 H41       -11.3593   -4.3506   57.3512 H       1  ZINC000762187039    0.1300
     42 H42        -9.3063   -5.4517   58.1953 H       1  ZINC000762187039    0.1300
     43 H43        -6.9580   -5.3001   58.8232 H       1  ZINC000762187039    0.1200
     44 H44        -5.7442   -3.1696   58.6575 H       1  ZINC000762187039    0.1200
     45 H45        -6.8591   -1.1560   57.8608 H       1  ZINC000762187039    0.1300
     46 H46        -8.9090   -0.0543   57.0076 H       1  ZINC000762187039    0.1300
     47 H47        -6.5790    3.0166   48.9326 H       1  ZINC000762187039    0.1800
@<TRIPOS>BOND
     1     1     2    1
     2     1    26    1
     3     1    27    1
     4     1    28    1
     5     2    25    1
     6     2     3    2
     7     3     4    1
     8     4     5    1
     9     4    24    2
    10     5     6    1
    11     5    29    1
    12     5    30    1
    13     6     7    1
    14     6    31    1
    15     6    32    1
    16     7     8    2
    17     7     9   am
    18     9    10    1
    19     9    33    1
    20    10    11    1
    21    10    34    1
    22    10    35    1
    23    11    12    1
    24    11    36    1
    25    11    37    1
    26    12    13    1
    27    12    38    1
    28    12    39    1
    29    13    14    1
    30    14    23   ar
    31    14    15   ar
    32    15    16   ar
    33    15    40    1
    34    16    17   ar
    35    16    41    1
    36    17    22   ar
    37    17    18   ar
    38    18    19   ar
    39    18    42    1
    40    19    20   ar
    41    19    43    1
    42    20    21   ar
    43    20    44    1
    44    21    22   ar
    45    21    45    1
    46    22    23   ar
    47    23    46    1
    48    24    25    1
    49    24    47    1
@<TRIPOS>SUBSTRUCTURE
     1 ZINC000762187039        1 TEMP              0 ****  ****    0 ROOT


##########                                Name:    ZINC000045927156
##########                DOCK_Rotatable_Bonds:                   7
##########                         Heavy_Atoms:                  30
##########                    Molecular_Weight:             418.522
##########                DOCK_Rotatable_Bonds:                   7
##########                       Formal_Charge:           0.0200001
##########                     HBond_Acceptors:                   8
##########                        HBond_Donors:                   1
##########                         Heavy_Atoms:                  30
##########                          Grid_Score:          -35.119064
##########                     Grid_vdw_energy:          -33.295734
##########                      Grid_es_energy:           -1.823329
##########           Internal_energy_repulsive:           14.158234

@<TRIPOS>MOLECULE
ZINC000045927156
 52 56 1 0 0
SMALL
USER_CHARGES


@<TRIPOS>ATOM
      1 O1         -8.0142    1.1859   54.2474 O.2     1  ZINC000045927156   -0.5800
      2 C2         -7.0036    1.7436   54.6295 C.2     1  ZINC000045927156    0.7300
      3 N3         -6.0053    1.9991   53.7608 N.am    1  ZINC000045927156   -0.7400
      4 C4         -6.1355    1.5995   52.3573 C.3     1  ZINC000045927156    0.1700
      5 C5         -6.5363    2.7937   51.5301 C.ar    1  ZINC000045927156   -0.0700
      6 C6         -7.8717    3.0377   51.2706 C.ar    1  ZINC000045927156   -0.1000
      7 C7         -8.2395    4.1333   50.5117 C.ar    1  ZINC000045927156   -0.1100
      8 C8         -7.2717    4.9847   50.0129 C.ar    1  ZINC000045927156   -0.1100
      9 C9         -5.9359    4.7411   50.2733 C.ar    1  ZINC000045927156   -0.1000
     10 C10        -5.5685    3.6483   51.0355 C.ar    1  ZINC000045927156   -0.1000
     11 C11        -4.1125    3.3827   51.3194 C.3     1  ZINC000045927156    0.1700
     12 N12        -3.5192    2.6593   50.1920 N.pl3   1  ZINC000045927156   -0.3800
     13 C13        -2.5941    1.6861   50.2563 C.2     1  ZINC000045927156    0.2500
     14 N14        -2.3270    1.2986   49.0355 N.2     1  ZINC000045927156   -0.5400
     15 C15        -3.0587    1.9980   48.1690 C.2     1  ZINC000045927156    0.2000
     16 N16        -3.8087    2.8404   48.8297 N.2     1  ZINC000045927156   -0.3100
     17 N17        -6.8840    2.1113   55.9206 N.am    1  ZINC000045927156   -0.6200
     18 C18        -5.7213    2.7957   56.5149 C.3     1  ZINC000045927156    0.1000
     19 C19        -6.2846    3.5265   57.7592 C.3     1  ZINC000045927156   -0.1300
     20 C20        -7.3320    2.5039   58.2733 C.3     1  ZINC000045927156   -0.1200
     21 C21        -7.8939    1.9020   56.9683 C.3     1  ZINC000045927156    0.2300
     22 H22        -8.8237    2.4031   56.6992 H       1  ZINC000045927156    0.1000
     23 C23        -8.1411    0.4263   57.1493 C.2     1  ZINC000045927156    0.0900
     24 N24        -7.3306   -0.3727   57.7334 N.2     1  ZINC000045927156   -0.4500
     25 C25        -7.6817   -1.6697   57.8239 C.ar    1  ZINC000045927156    0.0800
     26 C26        -6.9902   -2.7508   58.4060 C.ar    1  ZINC000045927156   -0.0700
     27 C27        -7.5279   -4.0022   58.3905 C.ar    1  ZINC000045927156   -0.1100
     28 C28        -8.7633   -4.2370   57.8040 C.ar    1  ZINC000045927156   -0.1000
     29 C29        -9.4617   -3.1996   57.2278 C.ar    1  ZINC000045927156   -0.0700
     30 C30        -8.9273   -1.9132   57.2341 C.ar    1  ZINC000045927156   -0.1800
     31 S31        -9.5402   -0.3862   56.6071 S.3     1  ZINC000045927156    0.1200
     32 H32        -5.2008    2.4476   54.0648 H       1  ZINC000045927156    0.3900
     33 H33        -5.1810    1.2134   51.9995 H       1  ZINC000045927156    0.1000
     34 H34        -6.8968    0.8244   52.2693 H       1  ZINC000045927156    0.0700
     35 H35        -8.6280    2.3724   51.6603 H       1  ZINC000045927156    0.1300
     36 H36        -9.2828    4.3236   50.3083 H       1  ZINC000045927156    0.1300
     37 H37        -7.5589    5.8401   49.4195 H       1  ZINC000045927156    0.1300
     38 H38        -5.1796    5.4061   49.8832 H       1  ZINC000045927156    0.1300
     39 H39        -3.5908    4.3296   51.4584 H       1  ZINC000045927156    0.1100
     40 H40        -4.0224    2.7819   52.2244 H       1  ZINC000045927156    0.1000
     41 H41        -2.1486    1.2931   51.1582 H       1  ZINC000045927156    0.2200
     42 H42        -3.0385    1.8843   47.0952 H       1  ZINC000045927156    0.2200
     43 H43        -4.9645    2.0696   56.8117 H       1  ZINC000045927156    0.0700
     44 H44        -5.3030    3.5143   55.8100 H       1  ZINC000045927156    0.0800
     45 H45        -5.5039    3.6929   58.5013 H       1  ZINC000045927156    0.0900
     46 H46        -6.7609    4.4659   57.4782 H       1  ZINC000045927156    0.0800
     47 H47        -6.8547    1.7361   58.8823 H       1  ZINC000045927156    0.0900
     48 H48        -8.1198    3.0074   58.8336 H       1  ZINC000045927156    0.0900
     49 H49        -6.0273   -2.5863   58.8669 H       1  ZINC000045927156    0.1300
     50 H50        -6.9862   -4.8215   58.8397 H       1  ZINC000045927156    0.1400
     51 H51        -9.1773   -5.2344   57.7992 H       1  ZINC000045927156    0.1400
     52 H52       -10.4228   -3.3833   56.7708 H       1  ZINC000045927156    0.1300
@<TRIPOS>BOND
     1     1     2    2
     2     2     3   am
     3     2    17   am
     4     3     4    1
     5     3    32    1
     6     4     5    1
     7     4    33    1
     8     4    34    1
     9     5    10   ar
    10     5     6   ar
    11     6     7   ar
    12     6    35    1
    13     7     8   ar
    14     7    36    1
    15     8     9   ar
    16     8    37    1
    17     9    10   ar
    18     9    38    1
    19    10    11    1
    20    11    12    1
    21    11    39    1
    22    11    40    1
    23    12    16    1
    24    12    13    1
    25    13    14    2
    26    13    41    1
    27    14    15    1
    28    15    16    2
    29    15    42    1
    30    17    21    1
    31    17    18    1
    32    18    19    1
    33    18    43    1
    34    18    44    1
    35    19    20    1
    36    19    45    1
    37    19    46    1
    38    20    21    1
    39    20    47    1
    40    20    48    1
    41    21    22    1
    42    21    23    1
    43    23    31    1
    44    23    24    2
    45    24    25    1
    46    25    30   ar
    47    25    26   ar
    48    26    27   ar
    49    26    49    1
    50    27    28   ar
    51    27    50    1
    52    28    29   ar
    53    28    51    1
    54    29    30   ar
    55    29    52    1
    56    30    31    1
@<TRIPOS>SUBSTRUCTURE
     1 ZINC000045927156        1 TEMP              0 ****  ****    0 ROOT


##########                                Name:    ZINC000745364361
##########                DOCK_Rotatable_Bonds:                   8
##########                         Heavy_Atoms:                  29
##########                    Molecular_Weight:             398.434
##########                DOCK_Rotatable_Bonds:                   8
##########                       Formal_Charge:          0.00999923
##########                     HBond_Acceptors:                   7
##########                        HBond_Donors:                   1
##########                         Heavy_Atoms:                  29
##########                          Grid_Score:          -35.062313
##########                     Grid_vdw_energy:          -33.686668
##########                      Grid_es_energy:           -1.375643
##########           Internal_energy_repulsive:           14.708979

@<TRIPOS>MOLECULE
ZINC000745364361
 52 54 1 0 0
SMALL
USER_CHARGES


@<TRIPOS>ATOM
      1 C1        -12.1960    0.8880   54.3077 C.3     1  ZINC000745364361   -0.1700
      2 C2        -11.2083   -0.2118   54.7026 C.3     1  ZINC000745364361    0.0700
      3 H3        -11.5453   -1.1656   54.2968 H       1  ZINC000745364361    0.1100
      4 O4        -11.1356   -0.3002   56.1501 O.3     1  ZINC000745364361   -0.3200
      5 C5        -10.7763   -1.4839   56.6710 C.2     1  ZINC000745364361    0.4700
      6 O6        -10.7160   -2.4617   55.9639 O.2     1  ZINC000745364361   -0.4900
      7 C7        -10.4478   -1.5931   58.1377 C.3     1  ZINC000745364361   -0.0400
      8 H8        -10.1515   -0.6154   58.5176 H       1  ZINC000745364361    0.1200
      9 C9        -11.6793   -2.0849   58.9009 C.3     1  ZINC000745364361   -0.1400
     10 C10        -9.3160   -2.5700   58.3276 C.ar    1  ZINC000745364361   -0.0500
     11 C11        -8.0204   -2.1083   58.4639 C.ar    1  ZINC000745364361   -0.1000
     12 C12        -6.9811   -3.0034   58.6381 C.ar    1  ZINC000745364361   -0.0900
     13 C13        -7.2366   -4.3607   58.6764 C.ar    1  ZINC000745364361   -0.1500
     14 C14        -8.5344   -4.8245   58.5404 C.ar    1  ZINC000745364361    0.1000
     15 F15        -8.7855   -6.1514   58.5776 F       1  ZINC000745364361   -0.1400
     16 C16        -9.5748   -3.9270   58.3712 C.ar    1  ZINC000745364361   -0.1400
     17 C17        -9.8449    0.1156   54.1502 C.2     1  ZINC000745364361    0.5200
     18 O18        -8.8490   -0.2038   54.7646 O.2     1  ZINC000745364361   -0.5000
     19 N19        -9.7322    0.7633   52.9737 N.am    1  ZINC000745364361   -0.6700
     20 C20        -8.4650    1.0675   52.4603 C.ar    1  ZINC000745364361    0.1200
     21 C21        -7.8024    2.2133   52.8806 C.ar    1  ZINC000745364361   -0.1100
     22 C22        -6.5535    2.5132   52.3746 C.ar    1  ZINC000745364361   -0.1400
     23 C23        -5.9596    1.6690   51.4457 C.ar    1  ZINC000745364361    0.1500
     24 N24        -4.6925    1.9735   50.9320 N.am    1  ZINC000745364361   -0.5600
     25 C25        -3.4271    1.6245   51.5884 C.3     1  ZINC000745364361    0.0900
     26 C26        -2.3456    1.7523   50.4928 C.3     1  ZINC000745364361   -0.1300
     27 C27        -2.9943    2.7704   49.5266 C.3     1  ZINC000745364361   -0.1500
     28 C28        -4.4793    2.6178   49.7717 C.2     1  ZINC000745364361    0.5200
     29 O29        -5.3509    3.0242   49.0324 O.2     1  ZINC000745364361   -0.5100
     30 C30        -6.6216    0.5224   51.0265 C.ar    1  ZINC000745364361   -0.1400
     31 C31        -7.8688    0.2206   51.5354 C.ar    1  ZINC000745364361   -0.0900
     32 H32       -13.1821    0.6513   54.7072 H       1  ZINC000745364361    0.0800
     33 H33       -11.8590    1.8419   54.7136 H       1  ZINC000745364361    0.0800
     34 H34       -12.2506    0.9543   53.2212 H       1  ZINC000745364361    0.0800
     35 H35       -11.9756   -3.0627   58.5211 H       1  ZINC000745364361    0.0700
     36 H36       -11.4418   -2.1640   59.9617 H       1  ZINC000745364361    0.0800
     37 H37       -12.4979   -1.3784   58.7635 H       1  ZINC000745364361    0.0800
     38 H38        -7.8196   -1.0476   58.4337 H       1  ZINC000745364361    0.1300
     39 H39        -5.9690   -2.6415   58.7441 H       1  ZINC000745364361    0.1400
     40 H40        -6.4246   -5.0597   58.8118 H       1  ZINC000745364361    0.1400
     41 H41       -10.5874   -4.2875   58.2655 H       1  ZINC000745364361    0.1400
     42 H42       -10.5286    1.0188   52.4825 H       1  ZINC000745364361    0.4100
     43 H43        -8.2642    2.8700   53.6030 H       1  ZINC000745364361    0.1300
     44 H44        -6.0384    3.4047   52.7009 H       1  ZINC000745364361    0.1600
     45 H45        -3.2215    2.3177   52.4040 H       1  ZINC000745364361    0.0800
     46 H46        -3.4658    0.6015   51.9626 H       1  ZINC000745364361    0.0900
     47 H47        -1.4162    2.1443   50.9060 H       1  ZINC000745364361    0.1000
     48 H48        -2.1777    0.7962   49.9970 H       1  ZINC000745364361    0.0900
     49 H49        -2.6668    3.7828   49.7629 H       1  ZINC000745364361    0.1100
     50 H50        -2.7536    2.5221   48.4929 H       1  ZINC000745364361    0.1100
     51 H51        -6.1596   -0.1343   50.3043 H       1  ZINC000745364361    0.1300
     52 H52        -8.3837   -0.6711   51.2092 H       1  ZINC000745364361    0.1400
@<TRIPOS>BOND
     1     1     2    1
     2     1    32    1
     3     1    33    1
     4     1    34    1
     5     2     3    1
     6     2     4    1
     7     2    17    1
     8     4     5    1
     9     5     6    2
    10     5     7    1
    11     7     8    1
    12     7     9    1
    13     7    10    1
    14     9    35    1
    15     9    36    1
    16     9    37    1
    17    10    16   ar
    18    10    11   ar
    19    11    12   ar
    20    11    38    1
    21    12    13   ar
    22    12    39    1
    23    13    14   ar
    24    13    40    1
    25    14    15    1
    26    14    16   ar
    27    16    41    1
    28    17    18    2
    29    17    19   am
    30    19    20    1
    31    19    42    1
    32    20    31   ar
    33    20    21   ar
    34    21    22   ar
    35    21    43    1
    36    22    23   ar
    37    22    44    1
    38    23    24    1
    39    23    30   ar
    40    24    28   am
    41    24    25    1
    42    25    26    1
    43    25    45    1
    44    25    46    1
    45    26    27    1
    46    26    47    1
    47    26    48    1
    48    27    28    1
    49    27    49    1
    50    27    50    1
    51    28    29    2
    52    30    31   ar
    53    30    51    1
    54    31    52    1
@<TRIPOS>SUBSTRUCTURE
     1 ZINC000745364361        1 TEMP              0 ****  ****    0 ROOT


##########                                Name:    ZINC000546142192
##########                DOCK_Rotatable_Bonds:                  12
##########                         Heavy_Atoms:                  31
##########                    Molecular_Weight:             420.511
##########                DOCK_Rotatable_Bonds:                  12
##########                       Formal_Charge:          -0.0599997
##########                     HBond_Acceptors:                   7
##########                        HBond_Donors:                   2
##########                         Heavy_Atoms:                  31
##########                          Grid_Score:          -35.034527
##########                     Grid_vdw_energy:          -34.823875
##########                      Grid_es_energy:           -0.210651
##########           Internal_energy_repulsive:           10.971220

@<TRIPOS>MOLECULE
ZINC000546142192
 59 61 1 0 0
SMALL
USER_CHARGES


@<TRIPOS>ATOM
      1 C1         -7.4599   -0.7737   58.7609 C.3     1  ZINC000546142192    0.0300
      2 O2         -8.2629   -1.3440   57.6939 O.3     1  ZINC000546142192   -0.3600
      3 C3         -9.5531   -1.5927   57.9684 C.2     1  ZINC000546142192    0.4600
      4 O4        -10.0040   -1.3151   59.0545 O.2     1  ZINC000546142192   -0.5100
      5 C5        -10.4390   -2.2180   56.9219 C.3     1  ZINC000546142192   -0.0800
      6 H6         -9.8326   -2.5305   56.0720 H       1  ZINC000546142192    0.1100
      7 C7        -11.1497   -3.4354   57.5167 C.3     1  ZINC000546142192   -0.1500
      8 C8        -11.4793   -1.1964   56.4580 C.3     1  ZINC000546142192   -0.0600
      9 C9        -10.9036   -0.3657   55.3400 C.ar    1  ZINC000546142192   -0.1000
     10 C10       -10.2165    0.7989   55.6291 C.ar    1  ZINC000546142192   -0.0900
     11 C11        -9.6874    1.5622   54.6069 C.ar    1  ZINC000546142192   -0.1200
     12 C12        -9.8460    1.1589   53.2876 C.ar    1  ZINC000546142192    0.1600
     13 N13        -9.3106    1.9297   52.2495 N.am    1  ZINC000546142192   -0.6900
     14 C14        -8.1854    1.5300   51.6246 C.2     1  ZINC000546142192    0.7100
     15 O15        -7.6354    0.4997   51.9628 O.2     1  ZINC000546142192   -0.5700
     16 N16        -7.6697    2.2723   50.6247 N.am    1  ZINC000546142192   -0.7400
     17 C17        -6.4457    1.8386   49.9466 C.3     1  ZINC000546142192    0.2300
     18 C18        -5.2456    2.3024   50.7312 C.2     1  ZINC000546142192    0.1800
     19 N19        -5.2286    2.5691   52.0085 N.2     1  ZINC000546142192   -0.4700
     20 C20        -3.9937    2.9530   52.3640 C.2     1  ZINC000546142192   -0.0300
     21 C21        -3.2157    2.9232   51.2651 C.2     1  ZINC000546142192   -0.0400
     22 N22        -4.0081    2.5054   50.2301 N.pl3   1  ZINC000546142192   -0.4500
     23 C23        -3.5932    2.3212   48.8371 C.3     1  ZINC000546142192    0.1100
     24 C24        -2.1595    1.7888   48.7982 C.3     1  ZINC000546142192   -0.0900
     25 C25        -1.7672    1.5060   47.3708 C.ar    1  ZINC000546142192   -0.0900
     26 C26        -1.1609    2.4901   46.6127 C.ar    1  ZINC000546142192   -0.1100
     27 C27        -0.8011    2.2306   45.3034 C.ar    1  ZINC000546142192   -0.1200
     28 C28        -1.0472    0.9869   44.7526 C.ar    1  ZINC000546142192   -0.1200
     29 C29        -1.6527    0.0025   45.5110 C.ar    1  ZINC000546142192   -0.1200
     30 C30        -2.0086    0.2607   46.8216 C.ar    1  ZINC000546142192   -0.1100
     31 C31       -10.5365   -0.0113   53.0006 C.ar    1  ZINC000546142192   -0.1500
     32 C32       -11.0587   -0.7728   54.0276 C.ar    1  ZINC000546142192   -0.0900
     33 H33        -7.4524   -1.4533   59.6129 H       1  ZINC000546142192    0.0600
     34 H34        -6.4400   -0.6229   58.4073 H       1  ZINC000546142192    0.1000
     35 H35        -7.8848    0.1835   59.0634 H       1  ZINC000546142192    0.0600
     36 H36       -11.7563   -3.1228   58.3666 H       1  ZINC000546142192    0.0600
     37 H37       -11.7906   -3.8876   56.7597 H       1  ZINC000546142192    0.0800
     38 H38       -10.4086   -4.1631   57.8472 H       1  ZINC000546142192    0.0700
     39 H39       -12.3677   -1.7183   56.1024 H       1  ZINC000546142192    0.0800
     40 H40       -11.7482   -0.5475   57.2914 H       1  ZINC000546142192    0.0800
     41 H41       -10.0939    1.1123   56.6553 H       1  ZINC000546142192    0.1300
     42 H42        -9.1512    2.4719   54.8333 H       1  ZINC000546142192    0.1400
     43 H43        -9.7494    2.7517   51.9797 H       1  ZINC000546142192    0.4100
     44 H44        -8.1092    3.0935   50.3541 H       1  ZINC000546142192    0.4000
     45 H45        -6.4353    0.7509   49.8760 H       1  ZINC000546142192    0.0800
     46 H46        -6.4134    2.2681   48.9453 H       1  ZINC000546142192    0.1000
     47 H47        -3.6784    3.2365   53.3573 H       1  ZINC000546142192    0.1700
     48 H48        -2.1672    3.1762   51.2116 H       1  ZINC000546142192    0.1800
     49 H49        -4.2590    1.6080   48.3511 H       1  ZINC000546142192    0.1000
     50 H50        -3.6405    3.2766   48.3146 H       1  ZINC000546142192    0.0900
     51 H51        -1.4839    2.5330   49.2201 H       1  ZINC000546142192    0.0800
     52 H52        -2.0971    0.8698   49.3810 H       1  ZINC000546142192    0.0800
     53 H53        -0.9686    3.4618   47.0431 H       1  ZINC000546142192    0.1200
     54 H54        -0.3280    2.9997   44.7109 H       1  ZINC000546142192    0.1200
     55 H55        -0.7667    0.7844   43.7294 H       1  ZINC000546142192    0.1200
     56 H56        -1.8453   -0.9690   45.0805 H       1  ZINC000546142192    0.1200
     57 H57        -2.4817   -0.5084   47.4142 H       1  ZINC000546142192    0.1200
     58 H58       -10.6614   -0.3276   51.9755 H       1  ZINC000546142192    0.1300
     59 H59       -11.5955   -1.6832   53.8050 H       1  ZINC000546142192    0.1300
@<TRIPOS>BOND
     1     1     2    1
     2     1    33    1
     3     1    34    1
     4     1    35    1
     5     2     3    1
     6     3     4    2
     7     3     5    1
     8     5     6    1
     9     5     7    1
    10     5     8    1
    11     7    36    1
    12     7    37    1
    13     7    38    1
    14     8     9    1
    15     8    39    1
    16     8    40    1
    17     9    32   ar
    18     9    10   ar
    19    10    11   ar
    20    10    41    1
    21    11    12   ar
    22    11    42    1
    23    12    13    1
    24    12    31   ar
    25    13    14   am
    26    13    43    1
    27    14    15    2
    28    14    16   am
    29    16    17    1
    30    16    44    1
    31    17    18    1
    32    17    45    1
    33    17    46    1
    34    18    22    1
    35    18    19    2
    36    19    20    1
    37    20    21    2
    38    20    47    1
    39    21    22    1
    40    21    48    1
    41    22    23    1
    42    23    24    1
    43    23    49    1
    44    23    50    1
    45    24    25    1
    46    24    51    1
    47    24    52    1
    48    25    30   ar
    49    25    26   ar
    50    26    27   ar
    51    26    53    1
    52    27    28   ar
    53    27    54    1
    54    28    29   ar
    55    28    55    1
    56    29    30   ar
    57    29    56    1
    58    30    57    1
    59    31    32   ar
    60    31    58    1
    61    32    59    1
@<TRIPOS>SUBSTRUCTURE
     1 ZINC000546142192        1 TEMP              0 ****  ****    0 ROOT


##########                                Name:     oleObject17.pdb
##########                DOCK_Rotatable_Bonds:                   8
##########                         Heavy_Atoms:                  29
##########                    Molecular_Weight:             435.393
##########                DOCK_Rotatable_Bonds:                   8
##########                       Formal_Charge:         0.000400059
##########                     HBond_Acceptors:                   6
##########                        HBond_Donors:                   0
##########                         Heavy_Atoms:                  29
##########                          Grid_Score:          -35.009632
##########                     Grid_vdw_energy:          -34.787434
##########                      Grid_es_energy:           -0.222199
##########           Internal_energy_repulsive:           18.279808

@<TRIPOS>MOLECULE
oleObject17.pdb
 57 59 1 0 0
SMALL
NO_CHARGES


@<TRIPOS>ATOM
      1 C          -2.7226    1.9577   51.0581 C.3     1  UNL         0.0391
      2 C          -2.1952    1.8007   49.6303 C.ar    1  UNL        -0.0277
      3 C          -0.8152    1.6735   49.3312 C.ar    1  UNL        -0.0463
      4 C          -0.4051    1.5654   47.9876 C.ar    1  UNL        -0.0590
      5 C          -1.3452    1.5789   46.9471 C.ar    1  UNL        -0.0620
      6 C          -2.7106    1.6868   47.2422 C.ar    1  UNL        -0.0619
      7 C          -3.1303    1.7911   48.5765 C.ar    1  UNL        -0.0572
      8 C           0.2519    1.6420   50.4198 C.3     1  UNL        -0.0394
      9 N          -3.9863    2.7230   51.1196 N.am    1  UNL        -0.3003
     10 C          -5.2211    2.0814   51.0265 C.2     1  UNL         0.2175
     11 O          -5.2949    0.8776   51.2058 O.2     1  UNL        -0.2772
     12 C          -6.4813    2.9833   51.1031 C.3     1  UNL         0.0384
     13 C          -6.7087    3.5747   52.5173 C.3     1  UNL        -0.0289
     14 C          -7.1265    2.4843   53.5230 C.3     1  UNL        -0.0010
     15 N          -8.3457    1.7702   53.0845 N.4     1  UNL        -0.3010
     16 C          -8.2717    1.2143   51.7129 C.3     1  UNL        -0.0010
     17 C          -7.7788    2.2487   50.6682 C.3     1  UNL        -0.0289
     18 C          -8.8574    0.8113   54.0902 C.3     1  UNL         0.0222
     19 C          -9.2596    1.4727   55.4289 C.3     1  UNL         0.0661
     20 O          -9.8832    0.4768   56.2571 O.3     1  UNL        -0.3432
     21 C          -9.1792   -0.5572   56.8443 C.ar    1  UNL         0.0937
     22 C          -7.9762   -0.3355   57.5490 C.ar    1  UNL        -0.0288
     23 C          -7.2938   -1.4119   58.1393 C.ar    1  UNL        -0.0408
     24 C          -7.8052   -2.7143   58.0277 C.ar    1  UNL         0.0422
     25 C          -8.9986   -2.9437   57.3253 C.ar    1  UNL        -0.0221
     26 C          -9.6839   -1.8688   56.7345 C.ar    1  UNL         0.0723
     27 CL        -11.1752   -2.1889   55.8690 Cl      1  UNL        -0.0814
     28 CL         -6.9529   -4.0539   58.7652 Cl      1  UNL        -0.0843
     29 C          -3.8544    4.1833   51.2743 C.3     1  UNL         0.0031
     30 H          -1.9871    2.4573   51.6984 H       1  UNL         0.0520
     31 H          -2.8762    0.9566   51.4802 H       1  UNL         0.0520
     32 H           0.6495    1.4711   47.7449 H       1  UNL         0.0626
     33 H          -1.0158    1.4987   45.9150 H       1  UNL         0.0623
     34 H          -3.4422    1.6916   46.4394 H       1  UNL         0.0623
     35 H          -4.1909    1.8788   48.7931 H       1  UNL         0.0626
     36 H           0.0389    0.8624   51.1615 H       1  UNL         0.0280
     37 H           0.3154    2.6032   50.9424 H       1  UNL         0.0280
     38 H           1.2459    1.4299   50.0071 H       1  UNL         0.0280
     39 H          -6.3273    3.8138   50.4040 H       1  UNL         0.0402
     40 H          -7.5004    4.3335   52.4684 H       1  UNL         0.0288
     41 H          -5.8130    4.0887   52.8812 H       1  UNL         0.0288
     42 H          -7.2979    2.9503   54.5019 H       1  UNL         0.0431
     43 H          -6.2961    1.7773   53.6305 H       1  UNL         0.0431
     44 H          -9.2621    0.8525   51.4088 H       1  UNL         0.0431
     45 H          -7.5971    0.3509   51.6996 H       1  UNL         0.0431
     46 H          -8.5715    2.9933   50.5189 H       1  UNL         0.0288
     47 H          -7.6284    1.7564   49.6988 H       1  UNL         0.0288
     48 H          -8.0948    0.0476   54.2897 H       1  UNL         0.0455
     49 H          -9.7345    0.2937   53.6808 H       1  UNL         0.0455
     50 H          -9.9675    2.2890   55.2448 H       1  UNL         0.0586
     51 H          -8.3720    1.8782   55.9292 H       1  UNL         0.0586
     52 H          -7.5603    0.6621   57.6449 H       1  UNL         0.0651
     53 H          -6.3689   -1.2351   58.6813 H       1  UNL         0.0639
     54 H          -9.3931   -3.9522   57.2393 H       1  UNL         0.0655
     55 H          -2.9617    4.5419   50.7465 H       1  UNL         0.0433
     56 H          -3.7675    4.4435   52.3361 H       1  UNL         0.0433
     57 H          -4.7285    4.6902   50.8475 H       1  UNL         0.0433
@<TRIPOS>BOND
     1     1     2    1
     2     1     9    1
     3     1    30    1
     4     1    31    1
     5     2     3   ar
     6     2     7   ar
     7     3     4   ar
     8     3     8    1
     9     4     5   ar
    10     4    32    1
    11     5     6   ar
    12     5    33    1
    13     6     7   ar
    14     6    34    1
    15     7    35    1
    16     8    36    1
    17     8    37    1
    18     8    38    1
    19     9    10   am
    20     9    29    1
    21    10    11    2
    22    10    12    1
    23    12    13    1
    24    12    17    1
    25    12    39    1
    26    13    14    1
    27    13    40    1
    28    13    41    1
    29    14    15    1
    30    14    42    1
    31    14    43    1
    32    15    16    1
    33    15    18    1
    34    16    17    1
    35    16    44    1
    36    16    45    1
    37    17    46    1
    38    17    47    1
    39    18    19    1
    40    18    48    1
    41    18    49    1
    42    19    20    1
    43    19    50    1
    44    19    51    1
    45    20    21    1
    46    21    22   ar
    47    21    26   ar
    48    22    23   ar
    49    22    52    1
    50    23    24   ar
    51    23    53    1
    52    24    25   ar
    53    24    28    1
    54    25    26   ar
    55    25    54    1
    56    26    27    1
    57    29    55    1
    58    29    56    1
    59    29    57    1
@<TRIPOS>SUBSTRUCTURE
     1 UNL         1 TEMP              0 ****  ****    0 ROOT


##########                                Name:    ZINC000506566356
##########                DOCK_Rotatable_Bonds:                  10
##########                         Heavy_Atoms:                  28
##########                    Molecular_Weight:               415.9
##########                DOCK_Rotatable_Bonds:                  10
##########                       Formal_Charge:           0.0199998
##########                     HBond_Acceptors:                   8
##########                        HBond_Donors:                   2
##########                         Heavy_Atoms:                  28
##########                          Grid_Score:          -34.935463
##########                     Grid_vdw_energy:          -34.019424
##########                      Grid_es_energy:           -0.916038
##########           Internal_energy_repulsive:            6.948647

@<TRIPOS>MOLECULE
ZINC000506566356
 46 48 1 0 0
SMALL
USER_CHARGES


@<TRIPOS>ATOM
      1 O1         -4.4756    2.5648   55.9528 O.2     1  ZINC000506566356   -0.5100
      2 C2         -5.6144    2.2968   55.6300 C.2     1  ZINC000506566356    0.5100
      3 N3         -5.9550    2.2624   54.3264 N.am    1  ZINC000506566356   -0.7000
      4 C4         -4.9520    2.5545   53.2993 C.3     1  ZINC000506566356    0.1200
      5 C5         -5.6212    3.2633   52.1200 C.3     1  ZINC000506566356   -0.0900
      6 C6         -4.5870    3.5760   51.0694 C.ar    1  ZINC000506566356   -0.0700
      7 C7         -3.8527    4.7443   51.1489 C.ar    1  ZINC000506566356   -0.1100
      8 C8         -2.9033    5.0316   50.1857 C.ar    1  ZINC000506566356   -0.1000
      9 C9         -2.6884    4.1510   49.1426 C.ar    1  ZINC000506566356   -0.1100
     10 C10        -3.4233    2.9814   49.0624 C.ar    1  ZINC000506566356   -0.0300
     11 Cl11       -3.1535    1.8744   47.7526 Cl      1  ZINC000506566356   -0.0700
     12 C12        -4.3689    2.6916   50.0295 C.ar    1  ZINC000506566356   -0.1000
     13 C13        -6.6368    1.9991   56.6769 C.2     1  ZINC000506566356    0.5100
     14 O14        -7.7781    1.7403   56.3545 O.2     1  ZINC000506566356   -0.5000
     15 N15        -6.2924    2.0178   57.9798 N.am    1  ZINC000506566356   -0.6300
     16 C16        -7.2500    1.7389   58.9605 C.ar    1  ZINC000506566356    0.1100
     17 C17        -7.7202    2.7533   59.7823 C.ar    1  ZINC000506566356   -0.0800
     18 C18        -8.6663    2.4750   60.7505 C.ar    1  ZINC000506566356   -0.1400
     19 C19        -9.1465    1.1875   60.9032 C.ar    1  ZINC000506566356   -0.0900
     20 C20        -8.6826    0.1710   60.0885 C.ar    1  ZINC000506566356   -0.1900
     21 C21        -7.7390    0.4421   59.1114 C.ar    1  ZINC000506566356    0.1200
     22 O22        -7.2818   -0.5562   58.3096 O.3     1  ZINC000506566356   -0.3100
     23 C23        -6.7283   -1.7047   58.9552 C.3     1  ZINC000506566356    0.1400
     24 C24        -7.5473   -2.9206   58.6063 C.2     1  ZINC000506566356    0.0500
     25 C25        -7.0540   -4.1618   58.6513 C.2     1  ZINC000506566356   -0.2300
     26 S26        -8.3352   -5.2723   58.1717 S.3     1  ZINC000506566356    0.1400
     27 C27        -9.4068   -3.9571   57.9584 C.2     1  ZINC000506566356    0.0200
     28 N28        -8.8103   -2.8475   58.2371 N.2     1  ZINC000506566356   -0.4700
     29 H29        -6.8642    2.0444   54.0683 H       1  ZINC000506566356    0.4200
     30 H30        -4.1790    3.1982   53.7190 H       1  ZINC000506566356    0.0800
     31 H31        -4.5021    1.6231   52.9556 H       1  ZINC000506566356    0.0800
     32 H32        -6.3874    2.6154   51.6940 H       1  ZINC000506566356    0.0900
     33 H33        -6.0797    4.1897   52.4656 H       1  ZINC000506566356    0.0900
     34 H34        -4.0208    5.4331   51.9636 H       1  ZINC000506566356    0.1300
     35 H35        -2.3299    5.9446   50.2484 H       1  ZINC000506566356    0.1300
     36 H36        -1.9474    4.3760   48.3898 H       1  ZINC000506566356    0.1300
     37 H37        -4.9427    1.7788   49.9675 H       1  ZINC000506566356    0.1300
     38 H38        -5.3803    2.2245   58.2375 H       1  ZINC000506566356    0.4300
     39 H39        -7.3467    3.7598   59.6655 H       1  ZINC000506566356    0.1500
     40 H40        -9.0313    3.2653   61.3898 H       1  ZINC000506566356    0.1300
     41 H41        -9.8859    0.9750   61.6612 H       1  ZINC000506566356    0.1300
     42 H42        -9.0594   -0.8337   60.2111 H       1  ZINC000506566356    0.1400
     43 H43        -5.7012   -1.8500   58.6201 H       1  ZINC000506566356    0.0900
     44 H44        -6.7407   -1.5559   60.0349 H       1  ZINC000506566356    0.0900
     45 H45        -6.0479   -4.4358   58.9320 H       1  ZINC000506566356    0.1800
     46 H46       -10.4355   -4.0432   57.6408 H       1  ZINC000506566356    0.2100
@<TRIPOS>BOND
     1     1     2    2
     2     2     3   am
     3     2    13    1
     4     3     4    1
     5     3    29    1
     6     4     5    1
     7     4    30    1
     8     4    31    1
     9     5     6    1
    10     5    32    1
    11     5    33    1
    12     6    12   ar
    13     6     7   ar
    14     7     8   ar
    15     7    34    1
    16     8     9   ar
    17     8    35    1
    18     9    10   ar
    19     9    36    1
    20    10    11    1
    21    10    12   ar
    22    12    37    1
    23    13    14    2
    24    13    15   am
    25    15    16    1
    26    15    38    1
    27    16    21   ar
    28    16    17   ar
    29    17    18   ar
    30    17    39    1
    31    18    19   ar
    32    18    40    1
    33    19    20   ar
    34    19    41    1
    35    20    21   ar
    36    20    42    1
    37    21    22    1
    38    22    23    1
    39    23    24    1
    40    23    43    1
    41    23    44    1
    42    24    28    1
    43    24    25    2
    44    25    26    1
    45    25    45    1
    46    26    27    1
    47    27    28    2
    48    27    46    1
@<TRIPOS>SUBSTRUCTURE
     1 ZINC000506566356        1 TEMP              0 ****  ****    0 ROOT


##########                                Name:    ZINC000471198073
##########                DOCK_Rotatable_Bonds:                  12
##########                         Heavy_Atoms:                  30
##########                    Molecular_Weight:             409.528
##########                DOCK_Rotatable_Bonds:                  12
##########                       Formal_Charge:          -0.0399998
##########                     HBond_Acceptors:                   6
##########                        HBond_Donors:                   3
##########                         Heavy_Atoms:                  30
##########                          Grid_Score:          -34.875721
##########                     Grid_vdw_energy:          -36.107224
##########                      Grid_es_energy:            1.231504
##########           Internal_energy_repulsive:           17.984545

@<TRIPOS>MOLECULE
ZINC000471198073
 61 62 1 0 0
SMALL
USER_CHARGES


@<TRIPOS>ATOM
      1 C1        -14.4822   -3.5954   58.8435 C.3     1  ZINC000471198073   -0.1400
      2 C2        -13.5890   -3.6930   57.6050 C.3     1  ZINC000471198073   -0.1100
      3 C3        -14.0308   -2.6521   56.5744 C.3     1  ZINC000471198073   -0.1500
      4 C4        -12.1569   -3.4355   57.9969 C.2     1  ZINC000471198073    0.5200
      5 O5        -11.9069   -2.8337   59.0199 O.2     1  ZINC000471198073   -0.5200
      6 N6        -11.1538   -3.8740   57.2108 N.am    1  ZINC000471198073   -0.6700
      7 C7         -9.8240   -3.6348   57.5747 C.ar    1  ZINC000471198073    0.1600
      8 C8         -9.0407   -4.6712   58.0665 C.ar    1  ZINC000471198073   -0.1500
      9 C9         -7.7271   -4.4362   58.4258 C.ar    1  ZINC000471198073   -0.0800
     10 C10        -7.1885   -3.1709   58.2973 C.ar    1  ZINC000471198073   -0.1300
     11 C11        -7.9671   -2.1293   57.8063 C.ar    1  ZINC000471198073    0.1500
     12 N12        -7.4220   -0.8493   57.6770 N.am    1  ZINC000471198073   -0.6400
     13 C13        -7.5448    0.0402   58.6821 C.2     1  ZINC000471198073    0.5100
     14 O14        -8.1288   -0.2707   59.6997 O.2     1  ZINC000471198073   -0.5000
     15 C15        -6.9621    1.4084   58.5439 C.2     1  ZINC000471198073    0.5100
     16 O16        -7.1981    2.2558   59.3800 O.2     1  ZINC000471198073   -0.5100
     17 N17        -6.1743    1.7021   57.4905 N.am    1  ZINC000471198073   -0.7000
     18 C18        -5.6041    3.0446   57.3539 C.3     1  ZINC000471198073    0.1200
     19 C19        -5.0875    3.2366   55.9267 C.3     1  ZINC000471198073   -0.0900
     20 H20        -4.4858    2.3744   55.6390 H       1  ZINC000471198073    0.0800
     21 C21        -6.2730    3.3736   54.9692 C.3     1  ZINC000471198073   -0.0800
     22 C22        -5.7657    3.4867   53.5546 C.ar    1  ZINC000471198073   -0.0800
     23 C23        -5.1775    2.3961   52.9420 C.ar    1  ZINC000471198073   -0.1200
     24 C24        -4.7121    2.4998   51.6446 C.ar    1  ZINC000471198073   -0.1200
     25 C25        -4.8353    3.6942   50.9595 C.ar    1  ZINC000471198073   -0.1200
     26 C26        -5.4244    4.7846   51.5719 C.ar    1  ZINC000471198073   -0.1200
     27 C27        -5.8937    4.6795   52.8678 C.ar    1  ZINC000471198073   -0.1200
     28 C28        -4.2299    4.5018   55.8607 C.3     1  ZINC000471198073   -0.1000
     29 C29        -4.8410    5.5795   56.7585 C.3     1  ZINC000471198073   -0.1600
     30 C30        -2.8122    4.1826   56.3398 C.3     1  ZINC000471198073   -0.1700
     31 C31        -9.2849   -2.3635   57.4393 C.ar    1  ZINC000471198073   -0.1400
     32 H32       -15.5180   -3.7816   58.5601 H       1  ZINC000471198073    0.0700
     33 H33       -14.1675   -4.3370   59.5778 H       1  ZINC000471198073    0.0600
     34 H34       -14.3972   -2.5981   59.2749 H       1  ZINC000471198073    0.0600
     35 H35       -13.6740   -4.6903   57.1736 H       1  ZINC000471198073    0.1000
     36 H36       -13.9459   -1.6547   57.0059 H       1  ZINC000471198073    0.0600
     37 H37       -13.3945   -2.7216   55.6921 H       1  ZINC000471198073    0.0600
     38 H38       -15.0667   -2.8383   56.2909 H       1  ZINC000471198073    0.0700
     39 H39       -11.3537   -4.3551   56.3927 H       1  ZINC000471198073    0.4100
     40 H40        -9.4588   -5.6618   58.1685 H       1  ZINC000471198073    0.1300
     41 H41        -7.1204   -5.2437   58.8082 H       1  ZINC000471198073    0.1300
     42 H42        -6.1617   -2.9904   58.5790 H       1  ZINC000471198073    0.1400
     43 H43        -6.9552   -0.6008   56.8637 H       1  ZINC000471198073    0.4200
     44 H44        -5.9848    1.0244   56.8228 H       1  ZINC000471198073    0.4200
     45 H45        -6.3721    3.7887   57.5655 H       1  ZINC000471198073    0.0700
     46 H46        -4.7802    3.1627   58.0575 H       1  ZINC000471198073    0.0800
     47 H47        -6.9137    2.4960   55.0564 H       1  ZINC000471198073    0.0800
     48 H48        -6.8437    4.2668   55.2231 H       1  ZINC000471198073    0.0800
     49 H49        -5.0812    1.4630   53.4772 H       1  ZINC000471198073    0.1200
     50 H50        -4.2518    1.6480   51.1662 H       1  ZINC000471198073    0.1200
     51 H51        -4.4711    3.7756   49.9461 H       1  ZINC000471198073    0.1200
     52 H52        -5.5204    5.7178   51.0368 H       1  ZINC000471198073    0.1200
     53 H53        -6.3539    5.5315   53.3463 H       1  ZINC000471198073    0.1200
     54 H54        -4.1934    4.8629   54.8329 H       1  ZINC000471198073    0.0800
     55 H55        -4.7877    5.2590   57.7988 H       1  ZINC000471198073    0.0600
     56 H56        -4.2876    6.5107   56.6364 H       1  ZINC000471198073    0.0600
     57 H57        -5.8828    5.7369   56.4796 H       1  ZINC000471198073    0.0600
     58 H58        -2.4242    3.3294   55.7834 H       1  ZINC000471198073    0.0600
     59 H59        -2.1694    5.0472   56.1740 H       1  ZINC000471198073    0.0600
     60 H60        -2.8332    3.9440   57.4031 H       1  ZINC000471198073    0.0700
     61 H61        -9.8920   -1.5560   57.0575 H       1  ZINC000471198073    0.1400
@<TRIPOS>BOND
     1     1     2    1
     2     1    32    1
     3     1    33    1
     4     1    34    1
     5     2     3    1
     6     2     4    1
     7     2    35    1
     8     3    36    1
     9     3    37    1
    10     3    38    1
    11     4     5    2
    12     4     6   am
    13     6     7    1
    14     6    39    1
    15     7    31   ar
    16     7     8   ar
    17     8     9   ar
    18     8    40    1
    19     9    10   ar
    20     9    41    1
    21    10    11   ar
    22    10    42    1
    23    11    12    1
    24    11    31   ar
    25    12    13   am
    26    12    43    1
    27    13    14    2
    28    13    15    1
    29    15    16    2
    30    15    17   am
    31    17    18    1
    32    17    44    1
    33    18    19    1
    34    18    45    1
    35    18    46    1
    36    19    20    1
    37    19    21    1
    38    19    28    1
    39    21    22    1
    40    21    47    1
    41    21    48    1
    42    22    27   ar
    43    22    23   ar
    44    23    24   ar
    45    23    49    1
    46    24    25   ar
    47    24    50    1
    48    25    26   ar
    49    25    51    1
    50    26    27   ar
    51    26    52    1
    52    27    53    1
    53    28    29    1
    54    28    30    1
    55    28    54    1
    56    29    55    1
    57    29    56    1
    58    29    57    1
    59    30    58    1
    60    30    59    1
    61    30    60    1
    62    31    61    1
@<TRIPOS>SUBSTRUCTURE
     1 ZINC000471198073        1 TEMP              0 ****  ****    0 ROOT


##########                                Name:    ZINC000637608314
##########                DOCK_Rotatable_Bonds:                   9
##########                         Heavy_Atoms:                  28
##########                    Molecular_Weight:             387.479
##########                DOCK_Rotatable_Bonds:                   9
##########                       Formal_Charge:           0.0499991
##########                     HBond_Acceptors:                   7
##########                        HBond_Donors:                   2
##########                         Heavy_Atoms:                  28
##########                          Grid_Score:          -34.870262
##########                     Grid_vdw_energy:          -33.158104
##########                      Grid_es_energy:           -1.712157
##########           Internal_energy_repulsive:           17.410685

@<TRIPOS>MOLECULE
ZINC000637608314
 57 59 1 0 0
SMALL
USER_CHARGES


@<TRIPOS>ATOM
      1 C1         -5.1633    3.6090   51.9531 C.3     1  ZINC000637608314   -0.1400
      2 C2         -5.7304    2.4364   51.1502 C.3     1  ZINC000637608314   -0.0400
      3 C3         -6.3186    2.9549   49.8364 C.3     1  ZINC000637608314   -0.1500
      4 C4         -4.6121    1.4366   50.8488 C.3     1  ZINC000637608314   -0.1500
      5 C5         -6.8108    1.7555   51.9502 C.2     1  ZINC000637608314    0.1900
      6 C6         -7.3784    0.6207   51.4791 C.2     1  ZINC000637608314   -0.2400
      7 C7         -8.3840   -0.0179   52.2183 C.2     1  ZINC000637608314    0.0200
      8 C8         -8.7781    0.5174   53.4093 C.2     1  ZINC000637608314   -0.2400
      9 C9         -9.8564   -0.1492   54.2241 C.3     1  ZINC000637608314    0.2100
     10 N10        -9.2869   -0.6360   55.4829 N.am    1  ZINC000637608314   -0.7300
     11 C11        -9.7248   -1.7930   56.0179 C.2     1  ZINC000637608314    0.7100
     12 O12       -10.5935   -2.4319   55.4564 O.2     1  ZINC000637608314   -0.5900
     13 N13        -9.1997   -2.2416   57.1753 N.am    1  ZINC000637608314   -0.6200
     14 C14        -9.6744   -3.5001   57.7558 C.3     1  ZINC000637608314    0.2000
     15 C15       -11.1432   -3.3846   58.0727 C.2     1  ZINC000637608314   -0.0400
     16 C16       -11.6768   -2.6722   59.0813 C.2     1  ZINC000637608314   -0.1900
     17 C17       -13.0781   -2.8442   59.0077 C.2     1  ZINC000637608314   -0.2200
     18 C18       -13.3172   -3.6514   57.9585 C.2     1  ZINC000637608314   -0.0300
     19 O19       -12.1419   -3.9709   57.3925 O.3     1  ZINC000637608314   -0.1700
     20 C20        -8.1543   -1.4707   57.8527 C.3     1  ZINC000637608314    0.1300
     21 C21        -8.7973   -0.3525   58.6755 C.3     1  ZINC000637608314    0.0700
     22 H22        -9.7397   -0.0520   58.2178 H       1  ZINC000637608314    0.0900
     23 C23        -7.8421    0.8580   58.7508 C.3     1  ZINC000637608314   -0.1500
     24 C24        -8.0338    1.3385   60.2151 C.3     1  ZINC000637608314   -0.1600
     25 C25        -8.2685   -0.0110   60.9392 C.3     1  ZINC000637608314    0.0500
     26 O26        -9.0301   -0.8064   60.0140 O.3     1  ZINC000637608314   -0.3800
     27 C27        -8.1675    1.6968   53.8690 C.2     1  ZINC000637608314    0.5300
     28 O28        -8.5103    2.1863   54.9334 O.2     1  ZINC000637608314   -0.5400
     29 N29        -7.2004    2.2838   53.1386 N.am    1  ZINC000637608314   -0.6000
     30 H30        -5.9600    4.3213   52.1677 H       1  ZINC000637608314    0.0700
     31 H31        -4.7443    3.2395   52.8889 H       1  ZINC000637608314    0.0700
     32 H32        -4.3818    4.1014   51.3744 H       1  ZINC000637608314    0.0700
     33 H33        -5.5371    3.4473   49.2577 H       1  ZINC000637608314    0.0700
     34 H34        -6.7224    2.1195   49.2644 H       1  ZINC000637608314    0.0600
     35 H35        -7.1152    3.6672   50.0510 H       1  ZINC000637608314    0.0700
     36 H36        -4.1931    1.0671   51.7848 H       1  ZINC000637608314    0.0700
     37 H37        -5.0160    0.6012   50.2769 H       1  ZINC000637608314    0.0600
     38 H38        -3.8306    1.9290   50.2702 H       1  ZINC000637608314    0.0700
     39 H39        -7.0572    0.2077   50.5343 H       1  ZINC000637608314    0.1500
     40 H40        -8.8418   -0.9235   51.8485 H       1  ZINC000637608314    0.1400
     41 H41       -10.6475    0.5697   54.4372 H       1  ZINC000637608314    0.0800
     42 H42       -10.2691   -0.9881   53.6636 H       1  ZINC000637608314    0.0800
     43 H43        -8.5946   -0.1256   55.9315 H       1  ZINC000637608314    0.4000
     44 H44        -9.5190   -4.3104   57.0435 H       1  ZINC000637608314    0.1200
     45 H45        -9.1207   -3.7097   58.6710 H       1  ZINC000637608314    0.0900
     46 H46       -11.1380   -2.0825   59.8081 H       1  ZINC000637608314    0.1500
     47 H47       -13.8153   -2.4109   59.6674 H       1  ZINC000637608314    0.1500
     48 H48       -14.2895   -3.9830   57.6254 H       1  ZINC000637608314    0.2000
     49 H49        -7.5882   -2.1280   58.5128 H       1  ZINC000637608314    0.0800
     50 H50        -7.4843   -1.0366   57.1106 H       1  ZINC000637608314    0.1000
     51 H51        -6.8112    0.5502   58.5753 H       1  ZINC000637608314    0.0800
     52 H52        -8.1419    1.6332   58.0456 H       1  ZINC000637608314    0.0900
     53 H53        -7.1363    1.8331   60.5869 H       1  ZINC000637608314    0.0800
     54 H54        -8.9040    1.9888   60.3043 H       1  ZINC000637608314    0.0800
     55 H55        -7.3160   -0.4931   61.1588 H       1  ZINC000637608314    0.0600
     56 H56        -8.8347    0.1457   61.8574 H       1  ZINC000637608314    0.0800
     57 H57        -6.7827    3.0975   53.4616 H       1  ZINC000637608314    0.4100
@<TRIPOS>BOND
     1     1     2    1
     2     1    30    1
     3     1    31    1
     4     1    32    1
     5     2     3    1
     6     2     4    1
     7     2     5    1
     8     3    33    1
     9     3    34    1
    10     3    35    1
    11     4    36    1
    12     4    37    1
    13     4    38    1
    14     5    29    1
    15     5     6    2
    16     6     7    1
    17     6    39    1
    18     7     8    2
    19     7    40    1
    20     8     9    1
    21     8    27    1
    22     9    10    1
    23     9    41    1
    24     9    42    1
    25    10    11   am
    26    10    43    1
    27    11    12    2
    28    11    13   am
    29    13    14    1
    30    13    20    1
    31    14    15    1
    32    14    44    1
    33    14    45    1
    34    15    19    1
    35    15    16    2
    36    16    17    1
    37    16    46    1
    38    17    18    2
    39    17    47    1
    40    18    19    1
    41    18    48    1
    42    20    21    1
    43    20    49    1
    44    20    50    1
    45    21    22    1
    46    21    26    1
    47    21    23    1
    48    23    24    1
    49    23    51    1
    50    23    52    1
    51    24    25    1
    52    24    53    1
    53    24    54    1
    54    25    26    1
    55    25    55    1
    56    25    56    1
    57    27    28    2
    58    27    29   am
    59    29    57    1
@<TRIPOS>SUBSTRUCTURE
     1 ZINC000637608314        1 TEMP              0 ****  ****    0 ROOT


##########                                Name:    ZINC000523863446
##########                DOCK_Rotatable_Bonds:                  10
##########                         Heavy_Atoms:                  29
##########                    Molecular_Weight:             396.533
##########                DOCK_Rotatable_Bonds:                  10
##########                       Formal_Charge:          -0.0200008
##########                     HBond_Acceptors:                   6
##########                        HBond_Donors:                   1
##########                         Heavy_Atoms:                  29
##########                          Grid_Score:          -34.846268
##########                     Grid_vdw_energy:          -33.256859
##########                      Grid_es_energy:           -1.589407
##########           Internal_energy_repulsive:           20.770144

@<TRIPOS>MOLECULE
ZINC000523863446
 61 63 1 0 0
SMALL
USER_CHARGES


@<TRIPOS>ATOM
      1 C1        -15.4285   -2.3872   56.5027 C.3     1  ZINC000523863446   -0.1700
      2 C2        -16.0155   -2.0971   57.8856 C.3     1  ZINC000523863446    0.1500
      3 H3        -16.5356   -2.9820   58.2525 H       1  ZINC000523863446    0.1300
      4 C4        -14.9042   -1.7367   58.8375 C.2     1  ZINC000523863446    0.5100
      5 O5        -14.7117   -0.5764   59.1334 O.2     1  ZINC000523863446   -0.5100
      6 N6        -14.1243   -2.7038   59.3599 N.am    1  ZINC000523863446   -0.6000
      7 C7        -14.3557   -4.1051   59.0009 C.3     1  ZINC000523863446    0.0700
      8 C8        -13.0450   -2.3535   60.2867 C.3     1  ZINC000523863446    0.1000
      9 C9        -11.8816   -1.7894   59.5126 C.2     1  ZINC000523863446    0.5000
     10 O10       -11.2790   -0.8270   59.9390 O.2     1  ZINC000523863446   -0.5200
     11 N11       -11.5107   -2.3542   58.3465 N.am    1  ZINC000523863446   -0.7200
     12 C12       -10.3786   -1.8068   57.5949 C.3     1  ZINC000523863446    0.1900
     13 H13       -10.2490   -0.7546   57.8480 H       1  ZINC000523863446    0.1000
     14 C14       -10.6496   -1.9409   56.0950 C.3     1  ZINC000523863446   -0.1200
     15 C15       -10.6413   -0.5539   55.4493 C.3     1  ZINC000523863446   -0.0900
     16 C16        -9.2492   -0.2624   54.8853 C.3     1  ZINC000523863446   -0.1200
     17 C17        -9.2407    1.1247   54.2395 C.3     1  ZINC000523863446   -0.1200
     18 C18       -10.2688    1.1663   53.1071 C.3     1  ZINC000523863446   -0.1200
     19 C19       -11.6608    0.8747   53.6711 C.3     1  ZINC000523863446   -0.1200
     20 C20       -11.6693   -0.5123   54.3168 C.3     1  ZINC000523863446   -0.1100
     21 C21        -9.1262   -2.5666   57.9489 C.ar    1  ZINC000523863446   -0.0900
     22 C22        -7.9474   -1.8845   58.1852 C.ar    1  ZINC000523863446   -0.1100
     23 C23        -6.7986   -2.5815   58.5100 C.ar    1  ZINC000523863446   -0.1200
     24 C24        -6.8289   -3.9607   58.5988 C.ar    1  ZINC000523863446   -0.1200
     25 C25        -8.0079   -4.6428   58.3634 C.ar    1  ZINC000523863446   -0.1200
     26 C26        -9.1577   -3.9455   58.0429 C.ar    1  ZINC000523863446   -0.1000
     27 N27       -16.9590   -0.9803   57.7911 N.pl3   1  ZINC000523863446   -0.3600
     28 C28       -16.8983    0.0376   56.9072 C.2     1  ZINC000523863446    0.0600
     29 C29       -17.9484    0.8564   57.1484 C.2     1  ZINC000523863446   -0.2700
     30 C30       -18.6755    0.3206   58.2163 C.2     1  ZINC000523863446    0.0500
     31 N31       -18.0868   -0.7837   58.5983 N.2     1  ZINC000523863446   -0.2900
     32 H32       -14.9085   -1.5023   56.1358 H       1  ZINC000523863446    0.0700
     33 H33       -14.7267   -3.2182   56.5731 H       1  ZINC000523863446    0.1000
     34 H34       -16.2324   -2.6479   55.8142 H       1  ZINC000523863446    0.0800
     35 H35       -13.7645   -4.3571   58.1205 H       1  ZINC000523863446    0.0700
     36 H36       -14.0614   -4.7463   59.8319 H       1  ZINC000523863446    0.0800
     37 H37       -15.4132   -4.2546   58.7835 H       1  ZINC000523863446    0.0800
     38 H38       -13.4038   -1.6090   60.9974 H       1  ZINC000523863446    0.1100
     39 H39       -12.7249   -3.2455   60.8253 H       1  ZINC000523863446    0.1100
     40 H40       -11.9934   -3.1231   58.0049 H       1  ZINC000523863446    0.4000
     41 H41        -9.8754   -2.5584   55.6396 H       1  ZINC000523863446    0.0800
     42 H42       -11.6230   -2.4070   55.9419 H       1  ZINC000523863446    0.0700
     43 H43       -10.8945    0.1969   56.1977 H       1  ZINC000523863446    0.0700
     44 H44        -8.5168   -0.2920   55.6919 H       1  ZINC000523863446    0.0600
     45 H45        -8.9959   -1.0132   54.1368 H       1  ZINC000523863446    0.0600
     46 H46        -9.4940    1.8755   54.9879 H       1  ZINC000523863446    0.0600
     47 H47        -8.2490    1.3324   53.8377 H       1  ZINC000523863446    0.0600
     48 H48       -10.2627    2.1544   52.6471 H       1  ZINC000523863446    0.0600
     49 H49       -10.0155    0.4155   52.3586 H       1  ZINC000523863446    0.0600
     50 H50       -11.9141    1.6256   54.4196 H       1  ZINC000523863446    0.0600
     51 H51       -12.3932    0.9044   52.8643 H       1  ZINC000523863446    0.0600
     52 H52       -11.4160   -1.2630   53.5684 H       1  ZINC000523863446    0.0600
     53 H53       -12.6610   -0.7199   54.7187 H       1  ZINC000523863446    0.0600
     54 H54        -7.9238   -0.8070   58.1159 H       1  ZINC000523863446    0.1200
     55 H55        -5.8775   -2.0486   58.6939 H       1  ZINC000523863446    0.1200
     56 H56        -5.9312   -4.5053   58.8518 H       1  ZINC000523863446    0.1200
     57 H57        -8.0314   -5.7203   58.4324 H       1  ZINC000523863446    0.1200
     58 H58       -10.0789   -4.4784   57.8588 H       1  ZINC000523863446    0.1200
     59 H59       -16.1463    0.1745   56.1443 H       1  ZINC000523863446    0.1700
     60 H60       -18.1830    1.7637   56.6117 H       1  ZINC000523863446    0.1500
     61 H61       -19.5712    0.7426   58.6476 H       1  ZINC000523863446    0.1800
@<TRIPOS>BOND
     1     1     2    1
     2     1    32    1
     3     1    33    1
     4     1    34    1
     5     2     3    1
     6     2     4    1
     7     2    27    1
     8     4     5    2
     9     4     6   am
    10     6     7    1
    11     6     8    1
    12     7    35    1
    13     7    36    1
    14     7    37    1
    15     8     9    1
    16     8    38    1
    17     8    39    1
    18     9    10    2
    19     9    11   am
    20    11    12    1
    21    11    40    1
    22    12    13    1
    23    12    14    1
    24    12    21    1
    25    14    15    1
    26    14    41    1
    27    14    42    1
    28    15    20    1
    29    15    16    1
    30    15    43    1
    31    16    17    1
    32    16    44    1
    33    16    45    1
    34    17    18    1
    35    17    46    1
    36    17    47    1
    37    18    19    1
    38    18    48    1
    39    18    49    1
    40    19    20    1
    41    19    50    1
    42    19    51    1
    43    20    52    1
    44    20    53    1
    45    21    26   ar
    46    21    22   ar
    47    22    23   ar
    48    22    54    1
    49    23    24   ar
    50    23    55    1
    51    24    25   ar
    52    24    56    1
    53    25    26   ar
    54    25    57    1
    55    26    58    1
    56    27    31    1
    57    27    28    1
    58    28    29    2
    59    28    59    1
    60    29    30    1
    61    29    60    1
    62    30    31    2
    63    30    61    1
@<TRIPOS>SUBSTRUCTURE
     1 ZINC000523863446        1 TEMP              0 ****  ****    0 ROOT


##########                                Name:    ZINC001328997126
##########                DOCK_Rotatable_Bonds:                   7
##########                         Heavy_Atoms:                  26
##########                    Molecular_Weight:             388.488
##########                DOCK_Rotatable_Bonds:                   7
##########                       Formal_Charge:           0.0299993
##########                     HBond_Acceptors:                  10
##########                        HBond_Donors:                   1
##########                         Heavy_Atoms:                  26
##########                          Grid_Score:          -34.841904
##########                     Grid_vdw_energy:          -33.800121
##########                      Grid_es_energy:           -1.041784
##########           Internal_energy_repulsive:            7.073125

@<TRIPOS>MOLECULE
ZINC001328997126
 54 56 1 0 0
SMALL
USER_CHARGES


@<TRIPOS>ATOM
      1 C1        -11.3937   -1.4606   55.1200 C.3     1  ZINC001328997126   -0.1700
      2 C2         -9.9387   -1.1509   55.4780 C.3     1  ZINC001328997126    0.1400
      3 N3         -9.4171   -0.1322   54.5636 N.am    1  ZINC001328997126   -0.6300
      4 C4         -9.7166   -0.0385   53.1266 C.3     1  ZINC001328997126    0.0700
      5 C5         -8.9188    1.1964   52.6652 C.3     1  ZINC001328997126    0.0700
      6 H6         -9.5904    1.9615   52.2756 H       1  ZINC001328997126    0.1200
      7 C7         -7.8854    0.8029   51.6077 C.3     1  ZINC001328997126    0.0500
      8 N8         -6.9412    1.9106   51.4098 N.3     1  ZINC001328997126   -0.5300
      9 C9         -6.7743    2.2116   49.9811 C.3     1  ZINC001328997126    0.0500
     10 C10        -5.8476    3.4192   49.8217 C.3     1  ZINC001328997126    0.0600
     11 N11        -4.5520    3.1254   50.4500 N.3     1  ZINC001328997126   -0.5200
     12 C12        -3.6077    4.2333   50.2522 C.3     1  ZINC001328997126    0.0400
     13 C13        -2.4928    3.7866   49.3421 C.2     1  ZINC001328997126    0.5200
     14 O14        -1.4132    4.3372   49.3904 O.2     1  ZINC001328997126   -0.5100
     15 N15        -2.6953    2.7754   48.4744 N.am    1  ZINC001328997126   -0.7300
     16 C16        -1.6119    2.3423   47.5884 C.3     1  ZINC001328997126    0.1600
     17 H17        -0.8912    3.1513   47.4685 H       1  ZINC001328997126    0.1100
     18 C18        -0.9121    1.1112   48.1902 C.3     1  ZINC001328997126   -0.1400
     19 C19        -0.0208    0.5157   47.0700 C.3     1  ZINC001328997126   -0.5800
     20 S20        -1.1091    0.6166   45.5986 S.o2    1  ZINC001328997126    2.4000
     21 O21        -0.3575    1.0874   44.4883 O.2     1  ZINC001328997126   -0.9300
     22 O22        -1.8614   -0.5837   45.4862 O.2     1  ZINC001328997126   -0.9300
     23 C23        -2.1906    1.9555   46.2128 C.3     1  ZINC001328997126   -0.6100
     24 C24        -4.7189    2.8246   51.8787 C.3     1  ZINC001328997126    0.0500
     25 C25        -5.6456    1.6170   52.0381 C.3     1  ZINC001328997126    0.0600
     26 O26        -8.2603    1.6641   53.8777 O.3     1  ZINC001328997126   -0.3100
     27 C27        -8.5937    0.8698   54.9011 C.2     1  ZINC001328997126    0.6400
     28 O28        -8.1811    1.0366   56.0317 O.2     1  ZINC001328997126   -0.5200
     29 H29       -11.9907   -0.5530   55.2086 H       1  ZINC001328997126    0.0600
     30 H30       -11.4450   -1.8308   54.0962 H       1  ZINC001328997126    0.0600
     31 H31       -11.7818   -2.2186   55.8003 H       1  ZINC001328997126    0.0700
     32 H32        -9.8874   -0.7807   56.5020 H       1  ZINC001328997126    0.0900
     33 H33        -9.3416   -2.0586   55.3895 H       1  ZINC001328997126    0.0900
     34 H34        -9.3743   -0.9323   52.6051 H       1  ZINC001328997126    0.0900
     35 H35       -10.7841    0.1138   52.9672 H       1  ZINC001328997126    0.0900
     36 H36        -7.3431   -0.0817   51.9412 H       1  ZINC001328997126    0.0900
     37 H37        -8.3924    0.5853   50.6676 H       1  ZINC001328997126    0.0600
     38 H38        -6.3382    1.3494   49.4764 H       1  ZINC001328997126    0.0500
     39 H39        -7.7455    2.4379   49.5412 H       1  ZINC001328997126    0.0900
     40 H40        -5.6992    3.6263   48.7619 H       1  ZINC001328997126    0.0800
     41 H41        -6.2965    4.2880   50.3030 H       1  ZINC001328997126    0.0500
     42 H42        -4.1283    5.0782   49.8014 H       1  ZINC001328997126    0.1100
     43 H43        -3.1930    4.5334   51.2145 H       1  ZINC001328997126    0.0700
     44 H44        -3.5584    2.3343   48.4366 H       1  ZINC001328997126    0.4100
     45 H45        -0.2960    1.4095   49.0385 H       1  ZINC001328997126    0.1100
     46 H46        -1.6539    0.3778   48.5066 H       1  ZINC001328997126    0.0900
     47 H47         0.8770    1.1175   46.9290 H       1  ZINC001328997126    0.1400
     48 H48         0.2370   -0.5202   47.2902 H       1  ZINC001328997126    0.1400
     49 H49        -3.2144    1.5966   46.3187 H       1  ZINC001328997126    0.1400
     50 H50        -2.1561    2.8100   45.5370 H       1  ZINC001328997126    0.1500
     51 H51        -3.7477    2.5981   52.3186 H       1  ZINC001328997126    0.1000
     52 H52        -5.1550    3.6867   52.3833 H       1  ZINC001328997126    0.0400
     53 H53        -5.7941    1.4099   53.0979 H       1  ZINC001328997126    0.0800
     54 H54        -5.1967    0.7480   51.5568 H       1  ZINC001328997126    0.0500
@<TRIPOS>BOND
     1     1     2    1
     2     1    29    1
     3     1    30    1
     4     1    31    1
     5     2     3    1
     6     2    32    1
     7     2    33    1
     8     3    27   am
     9     3     4    1
    10     4     5    1
    11     4    34    1
    12     4    35    1
    13     5     6    1
    14     5     7    1
    15     5    26    1
    16     7     8    1
    17     7    36    1
    18     7    37    1
    19     8    25    1
    20     8     9    1
    21     9    10    1
    22     9    38    1
    23     9    39    1
    24    10    11    1
    25    10    40    1
    26    10    41    1
    27    11    12    1
    28    11    24    1
    29    12    13    1
    30    12    42    1
    31    12    43    1
    32    13    14    2
    33    13    15   am
    34    15    16    1
    35    15    44    1
    36    16    17    1
    37    16    23    1
    38    16    18    1
    39    18    19    1
    40    18    45    1
    41    18    46    1
    42    19    20    1
    43    19    47    1
    44    19    48    1
    45    20    21    2
    46    20    22    2
    47    20    23    1
    48    23    49    1
    49    23    50    1
    50    24    25    1
    51    24    51    1
    52    24    52    1
    53    25    53    1
    54    25    54    1
    55    26    27    1
    56    27    28    2
@<TRIPOS>SUBSTRUCTURE
     1 ZINC001328997126        1 TEMP              0 ****  ****    0 ROOT


##########                                Name:    ZINC000179496896
##########                DOCK_Rotatable_Bonds:                   8
##########                         Heavy_Atoms:                  27
##########                    Molecular_Weight:             396.504
##########                DOCK_Rotatable_Bonds:                   8
##########                       Formal_Charge:          0.00999944
##########                     HBond_Acceptors:                   8
##########                        HBond_Donors:                   1
##########                         Heavy_Atoms:                  27
##########                          Grid_Score:          -34.737789
##########                     Grid_vdw_energy:          -33.497269
##########                      Grid_es_energy:           -1.240519
##########           Internal_energy_repulsive:           22.315599

@<TRIPOS>MOLECULE
ZINC000179496896
 53 55 1 0 0
SMALL
USER_CHARGES


@<TRIPOS>ATOM
      1 C1         -3.3509    2.4601   48.5532 C.3     1  ZINC000179496896   -0.1500
      2 C2         -3.7056    2.7420   50.0146 C.3     1  ZINC000179496896   -0.1100
      3 C3         -3.9573    4.2399   50.1985 C.3     1  ZINC000179496896   -0.1400
      4 C4         -4.9668    1.9627   50.3928 C.3     1  ZINC000179496896    0.1200
      5 N5         -5.1648    2.0282   51.8429 N.pl3   1  ZINC000179496896   -0.3300
      6 N6         -4.1726    2.2972   52.7923 N.2     1  ZINC000179496896   -0.2700
      7 C7         -4.7086    2.2756   53.9814 C.2     1  ZINC000179496896    0.0800
      8 C8         -6.0842    1.9878   53.8355 C.2     1  ZINC000179496896   -0.2500
      9 C9         -7.0733    1.8683   54.9222 C.2     1  ZINC000179496896    0.5900
     10 O10        -8.0779    1.2026   54.7596 O.2     1  ZINC000179496896   -0.5300
     11 N11        -6.8641    2.4968   56.0961 N.am    1  ZINC000179496896   -0.7100
     12 C12        -7.8479    2.3794   57.1753 C.3     1  ZINC000179496896    0.1300
     13 C13        -7.3302    1.4028   58.2332 C.3     1  ZINC000179496896    0.0700
     14 H14        -6.2475    1.3122   58.1451 H       1  ZINC000179496896    0.0900
     15 C15        -7.6867    1.9243   59.6267 C.3     1  ZINC000179496896   -0.1900
     16 N16        -7.9498    0.0866   58.0296 N.3     1  ZINC000179496896   -0.5300
     17 C17        -9.3191    0.0607   58.5633 C.3     1  ZINC000179496896    0.0600
     18 C18       -10.0583   -1.1542   57.9895 C.3     1  ZINC000179496896   -0.0400
     19 C19        -9.1712   -2.3688   58.1632 C.2     1  ZINC000179496896   -0.1700
     20 C20        -7.8549   -2.3057   58.4466 C.2     1  ZINC000179496896   -0.1100
     21 C21        -7.2489   -3.5515   58.5618 C.2     1  ZINC000179496896   -0.1200
     22 C22        -8.0467   -4.5994   58.3766 C.2     1  ZINC000179496896   -0.2200
     23 S23        -9.6788   -4.0447   58.0318 S.3     1  ZINC000179496896    0.1000
     24 C24        -7.1274   -0.9791   58.6180 C.3     1  ZINC000179496896    0.1200
     25 C25        -6.3300    1.8461   52.4845 C.2     1  ZINC000179496896    0.0700
     26 C26        -7.6597    1.5340   51.8478 C.3     1  ZINC000179496896    0.3400
     27 F27        -8.0184    0.2138   52.1400 F       1  ZINC000179496896   -0.1500
     28 F28        -8.6331    2.4040   52.3506 F       1  ZINC000179496896   -0.2000
     29 H29        -2.4524    3.0153   48.2838 H       1  ZINC000179496896    0.0600
     30 H30        -3.1716    1.3930   48.4223 H       1  ZINC000179496896    0.0600
     31 H31        -4.1760    2.7712   47.9126 H       1  ZINC000179496896    0.0600
     32 H32        -2.8804    2.4309   50.6553 H       1  ZINC000179496896    0.0800
     33 H33        -4.7825    4.5510   49.5579 H       1  ZINC000179496896    0.0600
     34 H34        -4.2100    4.4407   51.2397 H       1  ZINC000179496896    0.0600
     35 H35        -3.0588    4.7951   49.9291 H       1  ZINC000179496896    0.0700
     36 H36        -5.8287    2.3994   49.8883 H       1  ZINC000179496896    0.1000
     37 H37        -4.8560    0.9221   50.0878 H       1  ZINC000179496896    0.1000
     38 H38        -4.1916    2.4472   54.9139 H       1  ZINC000179496896    0.2000
     39 H39        -6.0622    3.0268   56.2262 H       1  ZINC000179496896    0.4100
     40 H40        -8.0067    3.3571   57.6300 H       1  ZINC000179496896    0.0700
     41 H41        -8.7898    2.0100   56.7697 H       1  ZINC000179496896    0.0700
     42 H42        -7.3179    1.2286   60.3803 H       1  ZINC000179496896    0.0600
     43 H43        -7.2270    2.9010   59.7776 H       1  ZINC000179496896    0.0700
     44 H44        -8.7694    2.0149   59.7147 H       1  ZINC000179496896    0.0600
     45 H45        -9.2852   -0.0134   59.6503 H       1  ZINC000179496896    0.0400
     46 H46        -9.8399    0.9738   58.2752 H       1  ZINC000179496896    0.0900
     47 H47       -10.9951   -1.3026   58.5265 H       1  ZINC000179496896    0.0800
     48 H48       -10.2614   -0.9950   56.9305 H       1  ZINC000179496896    0.0900
     49 H49        -6.1983   -3.6612   58.7867 H       1  ZINC000179496896    0.1400
     50 H50        -7.7390   -5.6333   58.4300 H       1  ZINC000179496896    0.1600
     51 H51        -6.1646   -1.0214   58.1088 H       1  ZINC000179496896    0.0900
     52 H52        -6.9749   -0.7800   59.6787 H       1  ZINC000179496896    0.0500
     53 H53        -7.5837    1.6593   50.7676 H       1  ZINC000179496896    0.1300
@<TRIPOS>BOND
     1     1     2    1
     2     1    29    1
     3     1    30    1
     4     1    31    1
     5     2     3    1
     6     2     4    1
     7     2    32    1
     8     3    33    1
     9     3    34    1
    10     3    35    1
    11     4     5    1
    12     4    36    1
    13     4    37    1
    14     5    25    1
    15     5     6    1
    16     6     7    2
    17     7     8    1
    18     7    38    1
    19     8     9    1
    20     8    25    2
    21     9    10    2
    22     9    11   am
    23    11    12    1
    24    11    39    1
    25    12    13    1
    26    12    40    1
    27    12    41    1
    28    13    14    1
    29    13    15    1
    30    13    16    1
    31    15    42    1
    32    15    43    1
    33    15    44    1
    34    16    24    1
    35    16    17    1
    36    17    18    1
    37    17    45    1
    38    17    46    1
    39    18    19    1
    40    18    47    1
    41    18    48    1
    42    19    23    1
    43    19    20    2
    44    20    21    1
    45    20    24    1
    46    21    22    2
    47    21    49    1
    48    22    23    1
    49    22    50    1
    50    24    51    1
    51    24    52    1
    52    25    26    1
    53    26    27    1
    54    26    28    1
    55    26    53    1
@<TRIPOS>SUBSTRUCTURE
     1 ZINC000179496896        1 TEMP              0 ****  ****    0 ROOT


##########                                Name:    ZINC000051488227
##########                DOCK_Rotatable_Bonds:                   8
##########                         Heavy_Atoms:                  30
##########                    Molecular_Weight:             403.478
##########                DOCK_Rotatable_Bonds:                   8
##########                       Formal_Charge:           0.0199996
##########                     HBond_Acceptors:                   5
##########                        HBond_Donors:                   0
##########                         Heavy_Atoms:                  30
##########                          Grid_Score:          -34.737625
##########                     Grid_vdw_energy:          -33.535419
##########                      Grid_es_energy:           -1.202205
##########           Internal_energy_repulsive:           22.519896

@<TRIPOS>MOLECULE
ZINC000051488227
 55 58 1 0 0
SMALL
USER_CHARGES


@<TRIPOS>ATOM
      1 O1         -8.5792    1.8890   56.8114 O.2     1  ZINC000051488227   -0.5000
      2 C2         -8.5992    0.9829   56.0122 C.2     1  ZINC000051488227    0.4800
      3 O3         -7.8140    1.0300   54.9245 O.3     1  ZINC000051488227   -0.3400
      4 C4         -7.1925    2.3052   54.6149 C.3     1  ZINC000051488227    0.1100
      5 C5         -6.4747    2.2064   53.2935 C.ar    1  ZINC000051488227   -0.1400
      6 C6         -5.1066    2.0088   53.2642 C.ar    1  ZINC000051488227   -0.0500
      7 C7         -4.4463    1.9180   52.0543 C.ar    1  ZINC000051488227   -0.1500
      8 C8         -5.1572    2.0248   50.8677 C.ar    1  ZINC000051488227    0.1500
      9 O9         -4.5100    1.9353   49.6761 O.3     1  ZINC000051488227   -0.3100
     10 C10        -3.0965    1.7300   49.7194 C.3     1  ZINC000051488227    0.1100
     11 C11        -2.5623    1.6147   48.3149 C.ar    1  ZINC000051488227    0.1200
     12 C12        -1.3895    0.9211   48.0852 C.ar    1  ZINC000051488227   -0.1500
     13 C13        -0.9068    0.8206   46.7890 C.ar    1  ZINC000051488227   -0.0700
     14 C14        -1.6254    1.4242   45.7687 C.ar    1  ZINC000051488227   -0.1700
     15 C15        -2.7909    2.1015   46.0750 C.ar    1  ZINC000051488227    0.1100
     16 N16        -3.2226    2.1724   47.3188 N.ar    1  ZINC000051488227   -0.4800
     17 C17        -6.5300    2.2225   50.8997 C.ar    1  ZINC000051488227   -0.2100
     18 C18        -7.1862    2.3079   52.1123 C.ar    1  ZINC000051488227   -0.0500
     19 C19        -9.5008   -0.2029   56.2399 C.3     1  ZINC000051488227    0.0000
     20 C20        -8.7813   -1.2301   57.0754 C.ar    1  ZINC000051488227   -0.0900
     21 C21        -7.5947   -0.9018   57.7038 C.ar    1  ZINC000051488227   -0.1100
     22 C22        -6.9347   -1.8440   58.4703 C.ar    1  ZINC000051488227   -0.1200
     23 C23        -7.4615   -3.1145   58.6086 C.ar    1  ZINC000051488227   -0.1100
     24 C24        -8.6486   -3.4426   57.9809 C.ar    1  ZINC000051488227   -0.1200
     25 C25        -9.3109   -2.4991   57.2180 C.ar    1  ZINC000051488227   -0.1000
     26 C26       -10.7713    0.2513   56.9650 C.3     1  ZINC000051488227   -0.1400
     27 C27       -11.5339    1.2356   56.0743 C.3     1  ZINC000051488227    0.0600
     28 O28       -11.8360    0.6101   54.8254 O.3     1  ZINC000051488227   -0.3800
     29 C29       -10.6845    0.2069   54.0811 C.3     1  ZINC000051488227    0.0500
     30 C30        -9.8880   -0.8187   54.8919 C.3     1  ZINC000051488227   -0.1400
     31 H31        -7.9588    3.0780   54.5552 H       1  ZINC000051488227    0.0800
     32 H32        -6.4785    2.5610   55.3979 H       1  ZINC000051488227    0.0800
     33 H33        -4.5536    1.9258   54.1883 H       1  ZINC000051488227    0.1300
     34 H34        -3.3775    1.7644   52.0320 H       1  ZINC000051488227    0.1400
     35 H35        -2.6220    2.5737   50.2205 H       1  ZINC000051488227    0.0900
     36 H36        -2.8792    0.8130   50.2672 H       1  ZINC000051488227    0.0900
     37 H37        -0.8553    0.4635   48.9046 H       1  ZINC000051488227    0.1400
     38 H38         0.0073    0.2850   46.5795 H       1  ZINC000051488227    0.1400
     39 H39        -1.2788    1.3664   44.7474 H       1  ZINC000051488227    0.1400
     40 H40        -3.3563    2.5747   45.2858 H       1  ZINC000051488227    0.1600
     41 H41        -7.0856    2.3063   49.9774 H       1  ZINC000051488227    0.1300
     42 H42        -8.2550    2.4615   52.1378 H       1  ZINC000051488227    0.1300
     43 H43        -7.1831    0.0909   57.5958 H       1  ZINC000051488227    0.1300
     44 H44        -6.0073   -1.5877   58.9607 H       1  ZINC000051488227    0.1300
     45 H45        -6.9455   -3.8509   59.2069 H       1  ZINC000051488227    0.1200
     46 H46        -9.0601   -4.4354   58.0887 H       1  ZINC000051488227    0.1200
     47 H47       -10.2383   -2.7555   56.7275 H       1  ZINC000051488227    0.1300
     48 H48       -11.4007   -0.6138   57.1738 H       1  ZINC000051488227    0.0900
     49 H49       -10.5015    0.7408   57.9009 H       1  ZINC000051488227    0.0900
     50 H50       -12.4605    1.5293   56.5672 H       1  ZINC000051488227    0.1000
     51 H51       -10.9193    2.1187   55.8992 H       1  ZINC000051488227    0.0500
     52 H52       -10.9995   -0.2403   53.1383 H       1  ZINC000051488227    0.1000
     53 H53       -10.0589    1.0765   53.8800 H       1  ZINC000051488227    0.0700
     54 H54        -8.9864   -1.0944   54.3451 H       1  ZINC000051488227    0.0900
     55 H55       -10.4995   -1.7054   55.0588 H       1  ZINC000051488227    0.0900
@<TRIPOS>BOND
     1     1     2    2
     2     2     3    1
     3     2    19    1
     4     3     4    1
     5     4     5    1
     6     4    31    1
     7     4    32    1
     8     5    18   ar
     9     5     6   ar
    10     6     7   ar
    11     6    33    1
    12     7     8   ar
    13     7    34    1
    14     8     9    1
    15     8    17   ar
    16     9    10    1
    17    10    11    1
    18    10    35    1
    19    10    36    1
    20    11    16   ar
    21    11    12   ar
    22    12    13   ar
    23    12    37    1
    24    13    14   ar
    25    13    38    1
    26    14    15   ar
    27    14    39    1
    28    15    16   ar
    29    15    40    1
    30    17    18   ar
    31    17    41    1
    32    18    42    1
    33    19    30    1
    34    19    20    1
    35    19    26    1
    36    20    25   ar
    37    20    21   ar
    38    21    22   ar
    39    21    43    1
    40    22    23   ar
    41    22    44    1
    42    23    24   ar
    43    23    45    1
    44    24    25   ar
    45    24    46    1
    46    25    47    1
    47    26    27    1
    48    26    48    1
    49    26    49    1
    50    27    28    1
    51    27    50    1
    52    27    51    1
    53    28    29    1
    54    29    30    1
    55    29    52    1
    56    29    53    1
    57    30    54    1
    58    30    55    1
@<TRIPOS>SUBSTRUCTURE
     1 ZINC000051488227        1 TEMP              0 ****  ****    0 ROOT


##########                                Name:    ZINC000464139057
##########                DOCK_Rotatable_Bonds:                   9
##########                         Heavy_Atoms:                  30
##########                    Molecular_Weight:              413.56
##########                DOCK_Rotatable_Bonds:                   9
##########                       Formal_Charge:         2.38419e-07
##########                     HBond_Acceptors:                   6
##########                        HBond_Donors:                   2
##########                         Heavy_Atoms:                  30
##########                          Grid_Score:          -34.701199
##########                     Grid_vdw_energy:          -34.053288
##########                      Grid_es_energy:           -0.647910
##########           Internal_energy_repulsive:           15.414174

@<TRIPOS>MOLECULE
ZINC000464139057
 65 67 1 0 0
SMALL
USER_CHARGES


@<TRIPOS>ATOM
      1 C1         -2.6698    1.9438   50.2468 C.3     1  ZINC000464139057   -0.1800
      2 C2         -2.8215    3.4086   50.6615 C.3     1  ZINC000464139057    0.0700
      3 H3         -1.9986    3.9913   50.2474 H       1  ZINC000464139057    0.1200
      4 C4         -4.1527    3.9551   50.1331 C.3     1  ZINC000464139057    0.0800
      5 N5         -5.2479    3.2784   50.8457 N.am    1  ZINC000464139057   -0.6100
      6 C6         -6.2677    2.7106   50.1718 C.2     1  ZINC000464139057    0.5600
      7 O7         -6.2921    2.7530   48.9574 O.2     1  ZINC000464139057   -0.5300
      8 C8         -7.3569    2.0362   50.9099 C.ar    1  ZINC000464139057   -0.1200
      9 C9         -7.4443    0.6432   50.9122 C.ar    1  ZINC000464139057   -0.0900
     10 C10        -8.4628    0.0201   51.6033 C.ar    1  ZINC000464139057   -0.1000
     11 C11        -9.3966    0.7730   52.2927 C.ar    1  ZINC000464139057   -0.0900
     12 C12       -10.5068    0.0855   53.0451 C.3     1  ZINC000464139057    0.1800
     13 N13       -10.0855   -0.1521   54.4278 N.am    1  ZINC000464139057   -0.7400
     14 C14       -10.7002   -1.0970   55.1667 C.2     1  ZINC000464139057    0.7000
     15 O15       -11.6034   -1.7531   54.6851 O.2     1  ZINC000464139057   -0.5900
     16 N16       -10.3136   -1.3145   56.4394 N.am    1  ZINC000464139057   -0.7500
     17 C17       -10.9830   -2.3403   57.2430 C.3     1  ZINC000464139057    0.1400
     18 C18       -11.0632   -1.8759   58.6987 C.3     1  ZINC000464139057   -0.0900
     19 C19        -9.7198   -1.3487   59.1326 C.2     1  ZINC000464139057   -0.1200
     20 C20        -8.6390   -1.9652   58.7728 C.2     1  ZINC000464139057   -0.1500
     21 C21        -7.2833   -1.4464   59.2017 C.3     1  ZINC000464139057   -0.0900
     22 C22        -6.9813   -0.1650   58.4216 C.3     1  ZINC000464139057   -0.1100
     23 C23        -7.5837    1.0429   59.1172 C.3     1  ZINC000464139057   -0.1200
     24 C24        -9.1021    1.0454   59.1270 C.3     1  ZINC000464139057   -0.1100
     25 C25        -9.6405   -0.0978   59.9814 C.3     1  ZINC000464139057   -0.0800
     26 C26        -9.3155    2.1542   52.2949 C.ar    1  ZINC000464139057   -0.1000
     27 C27        -8.2989    2.7895   51.6123 C.ar    1  ZINC000464139057   -0.0700
     28 C28        -5.1966    3.2395   52.3158 C.3     1  ZINC000464139057    0.0700
     29 C29        -3.8145    2.7278   52.7379 C.3     1  ZINC000464139057    0.0700
     30 H30        -3.7100    1.6818   52.4500 H       1  ZINC000464139057    0.0700
     31 C31        -3.6628    2.8580   54.2548 C.3     1  ZINC000464139057   -0.1500
     32 O32        -2.8048    3.5052   52.0877 O.3     1  ZINC000464139057   -0.3700
     33 H33        -3.4930    1.3616   50.6611 H       1  ZINC000464139057    0.0600
     34 H34        -2.6843    1.8706   49.1593 H       1  ZINC000464139057    0.0700
     35 H35        -1.7239    1.5553   50.6244 H       1  ZINC000464139057    0.0700
     36 H36        -4.2059    5.0289   50.3127 H       1  ZINC000464139057    0.0800
     37 H37        -4.2325    3.7569   49.0642 H       1  ZINC000464139057    0.1000
     38 H38        -6.7164    0.0544   50.3738 H       1  ZINC000464139057    0.1300
     39 H39        -8.5315   -1.0577   51.6058 H       1  ZINC000464139057    0.1300
     40 H40       -11.3951    0.7172   53.0394 H       1  ZINC000464139057    0.0800
     41 H41       -10.7351   -0.8666   52.5661 H       1  ZINC000464139057    0.0800
     42 H42        -9.3641    0.3705   54.8118 H       1  ZINC000464139057    0.4000
     43 H43        -9.5922   -0.7918   56.8232 H       1  ZINC000464139057    0.4000
     44 H44       -11.9895   -2.5041   56.8581 H       1  ZINC000464139057    0.0700
     45 H45       -10.4174   -3.2705   57.1892 H       1  ZINC000464139057    0.0700
     46 H46       -11.8093   -1.0861   58.7875 H       1  ZINC000464139057    0.0700
     47 H47       -11.3460   -2.7159   59.3330 H       1  ZINC000464139057    0.0800
     48 H48        -8.7056   -2.8547   58.1637 H       1  ZINC000464139057    0.1100
     49 H49        -7.2955   -1.2302   60.2700 H       1  ZINC000464139057    0.0700
     50 H50        -6.5203   -2.1944   58.9861 H       1  ZINC000464139057    0.0700
     51 H51        -5.9015   -0.0355   58.3484 H       1  ZINC000464139057    0.0600
     52 H52        -7.4009   -0.2480   57.4190 H       1  ZINC000464139057    0.0600
     53 H53        -7.2284    1.0650   60.1475 H       1  ZINC000464139057    0.0600
     54 H54        -7.2368    1.9447   58.6126 H       1  ZINC000464139057    0.0600
     55 H55        -9.4568    1.9937   59.5308 H       1  ZINC000464139057    0.0600
     56 H56        -9.4677    0.9317   58.1064 H       1  ZINC000464139057    0.0600
     57 H57       -10.6341    0.1573   60.3498 H       1  ZINC000464139057    0.0700
     58 H58        -8.9696   -0.2734   60.8224 H       1  ZINC000464139057    0.0700
     59 H59       -10.0475    2.7361   52.8353 H       1  ZINC000464139057    0.1300
     60 H60        -8.2365    3.8677   51.6150 H       1  ZINC000464139057    0.1300
     61 H61        -5.3549    4.2413   52.7153 H       1  ZINC000464139057    0.0800
     62 H62        -5.9676    2.5674   52.6924 H       1  ZINC000464139057    0.1000
     63 H63        -4.4347    2.2682   54.7491 H       1  ZINC000464139057    0.0800
     64 H64        -2.6800    2.4941   54.5542 H       1  ZINC000464139057    0.0700
     65 H65        -3.7656    3.9045   54.5418 H       1  ZINC000464139057    0.0700
@<TRIPOS>BOND
     1     1     2    1
     2     1    33    1
     3     1    34    1
     4     1    35    1
     5     2     3    1
     6     2    32    1
     7     2     4    1
     8     4     5    1
     9     4    36    1
    10     4    37    1
    11     5     6   am
    12     5    28    1
    13     6     7    2
    14     6     8    1
    15     8    27   ar
    16     8     9   ar
    17     9    10   ar
    18     9    38    1
    19    10    11   ar
    20    10    39    1
    21    11    12    1
    22    11    26   ar
    23    12    13    1
    24    12    40    1
    25    12    41    1
    26    13    14   am
    27    13    42    1
    28    14    15    2
    29    14    16   am
    30    16    17    1
    31    16    43    1
    32    17    18    1
    33    17    44    1
    34    17    45    1
    35    18    19    1
    36    18    46    1
    37    18    47    1
    38    19    25    1
    39    19    20    2
    40    20    21    1
    41    20    48    1
    42    21    22    1
    43    21    49    1
    44    21    50    1
    45    22    23    1
    46    22    51    1
    47    22    52    1
    48    23    24    1
    49    23    53    1
    50    23    54    1
    51    24    25    1
    52    24    55    1
    53    24    56    1
    54    25    57    1
    55    25    58    1
    56    26    27   ar
    57    26    59    1
    58    27    60    1
    59    28    29    1
    60    28    61    1
    61    28    62    1
    62    29    30    1
    63    29    31    1
    64    29    32    1
    65    31    63    1
    66    31    64    1
    67    31    65    1
@<TRIPOS>SUBSTRUCTURE
     1 ZINC000464139057        1 TEMP              0 ****  ****    0 ROOT


##########                                Name:    ZINC000185598309
##########                DOCK_Rotatable_Bonds:                  14
##########                         Heavy_Atoms:                  25
##########                    Molecular_Weight:             347.457
##########                DOCK_Rotatable_Bonds:                  14
##########                       Formal_Charge:               -0.02
##########                     HBond_Acceptors:                   6
##########                        HBond_Donors:                   4
##########                         Heavy_Atoms:                  25
##########                          Grid_Score:          -34.652775
##########                     Grid_vdw_energy:          -32.152363
##########                      Grid_es_energy:           -2.500412
##########           Internal_energy_repulsive:           14.209849

@<TRIPOS>MOLECULE
ZINC000185598309
 54 54 1 0 0
SMALL
USER_CHARGES


@<TRIPOS>ATOM
      1 C1         -5.8956    2.4425   66.7528 C.3     1  ZINC000185598309   -0.1300
      2 C2         -7.3477    2.1393   66.4874 C.2     1  ZINC000185598309   -0.1600
      3 C3         -7.8452    2.3158   65.2885 C.2     1  ZINC000185598309   -0.1600
      4 C4         -9.2978    2.0144   65.0235 C.3     1  ZINC000185598309   -0.0900
      5 C5         -9.4375    0.5736   64.5279 C.3     1  ZINC000185598309    0.1700
      6 H6        -10.4019    0.4508   64.0351 H       1  ZINC000185598309    0.1000
      7 C7         -9.3460   -0.3856   65.7163 C.3     1  ZINC000185598309    0.0600
      8 O8         -7.9948   -0.8235   65.8721 O.3     1  ZINC000185598309   -0.5700
      9 N9         -8.3624    0.2778   63.5777 N.am    1  ZINC000185598309   -0.7300
     10 C10        -8.5591    0.4655   62.2576 C.2     1  ZINC000185598309    0.7000
     11 O11        -9.6283    0.8819   61.8555 O.2     1  ZINC000185598309   -0.5900
     12 N12        -7.5705    0.1918   61.3834 N.am    1  ZINC000185598309   -0.7400
     13 C13        -7.7850    0.3942   59.9484 C.3     1  ZINC000185598309    0.1800
     14 C14        -8.2020   -0.9079   59.3143 C.ar    1  ZINC000185598309   -0.0900
     15 C15        -7.2579   -1.8851   59.0589 C.ar    1  ZINC000185598309   -0.1100
     16 C16        -7.6365   -3.0812   58.4768 C.ar    1  ZINC000185598309   -0.1000
     17 C17        -8.9595   -3.3030   58.1490 C.ar    1  ZINC000185598309   -0.1100
     18 C18        -9.9104   -2.3235   58.4046 C.ar    1  ZINC000185598309    0.1400
     19 N19       -11.2518   -2.5453   58.0742 N.am    1  ZINC000185598309   -0.6800
     20 C20       -12.1672   -2.7123   59.0492 C.2     1  ZINC000185598309    0.5200
     21 O21       -11.8282   -2.6704   60.2129 O.2     1  ZINC000185598309   -0.5200
     22 C22       -13.6120   -2.9512   58.6933 C.3     1  ZINC000185598309   -0.1100
     23 H23       -14.1412   -3.3392   59.5636 H       1  ZINC000185598309    0.1000
     24 C24       -13.6949   -3.9663   57.5516 C.3     1  ZINC000185598309   -0.1500
     25 C25       -14.2531   -1.6339   58.2521 C.3     1  ZINC000185598309   -0.1100
     26 C26       -14.2336   -0.6419   59.4168 C.3     1  ZINC000185598309   -0.1600
     27 C27        -9.5279   -1.1258   58.9940 C.ar    1  ZINC000185598309   -0.1300
     28 H28        -5.6665    2.2363   67.7984 H       1  ZINC000185598309    0.0600
     29 H29        -5.2714    1.8175   66.1141 H       1  ZINC000185598309    0.0600
     30 H30        -5.6986    3.4928   66.5379 H       1  ZINC000185598309    0.0600
     31 H31        -7.9783    1.7765   67.2857 H       1  ZINC000185598309    0.1100
     32 H32        -7.2143    2.6773   64.4899 H       1  ZINC000185598309    0.1100
     33 H33        -9.8685    2.1390   65.9438 H       1  ZINC000185598309    0.0900
     34 H34        -9.6782    2.6982   64.2647 H       1  ZINC000185598309    0.0800
     35 H35        -9.6687    0.1270   66.6225 H       1  ZINC000185598309    0.0500
     36 H36        -9.9890   -1.2474   65.5378 H       1  ZINC000185598309    0.0500
     37 H37        -7.3654   -0.1075   66.0344 H       1  ZINC000185598309    0.3800
     38 H38        -7.5090   -0.0533   63.8986 H       1  ZINC000185598309    0.4000
     39 H39        -6.7171   -0.1393   61.7043 H       1  ZINC000185598309    0.4000
     40 H40        -8.5677    1.1380   59.7993 H       1  ZINC000185598309    0.0700
     41 H41        -6.8603    0.7426   59.4883 H       1  ZINC000185598309    0.0800
     42 H42        -6.2227   -1.7140   59.3144 H       1  ZINC000185598309    0.1300
     43 H43        -6.8966   -3.8423   58.2779 H       1  ZINC000185598309    0.1300
     44 H44        -9.2544   -4.2370   57.6941 H       1  ZINC000185598309    0.1300
     45 H45       -11.5229   -2.5788   57.1435 H       1  ZINC000185598309    0.4100
     46 H46       -13.2381   -4.9048   57.8659 H       1  ZINC000185598309    0.0600
     47 H47       -14.7398   -4.1391   57.2941 H       1  ZINC000185598309    0.0800
     48 H48       -13.1657   -3.5782   56.6813 H       1  ZINC000185598309    0.0600
     49 H49       -13.6932   -1.2203   57.4132 H       1  ZINC000185598309    0.0700
     50 H50       -15.2836   -1.8156   57.9469 H       1  ZINC000185598309    0.0700
     51 H51       -14.7934   -1.0555   60.2557 H       1  ZINC000185598309    0.0600
     52 H52       -13.2031   -0.4601   59.7220 H       1  ZINC000185598309    0.0600
     53 H53       -14.6904    0.2965   59.1025 H       1  ZINC000185598309    0.0600
     54 H54       -10.2650   -0.3621   59.1941 H       1  ZINC000185598309    0.1300
@<TRIPOS>BOND
     1     1     2    1
     2     1    28    1
     3     1    29    1
     4     1    30    1
     5     2     3    2
     6     2    31    1
     7     3     4    1
     8     3    32    1
     9     4     5    1
    10     4    33    1
    11     4    34    1
    12     5     6    1
    13     5     7    1
    14     5     9    1
    15     7     8    1
    16     7    35    1
    17     7    36    1
    18     8    37    1
    19     9    10   am
    20     9    38    1
    21    10    11    2
    22    10    12   am
    23    12    13    1
    24    12    39    1
    25    13    14    1
    26    13    40    1
    27    13    41    1
    28    14    27   ar
    29    14    15   ar
    30    15    16   ar
    31    15    42    1
    32    16    17   ar
    33    16    43    1
    34    17    18   ar
    35    17    44    1
    36    18    19    1
    37    18    27   ar
    38    19    20   am
    39    19    45    1
    40    20    21    2
    41    20    22    1
    42    22    23    1
    43    22    24    1
    44    22    25    1
    45    24    46    1
    46    24    47    1
    47    24    48    1
    48    25    26    1
    49    25    49    1
    50    25    50    1
    51    26    51    1
    52    26    52    1
    53    26    53    1
    54    27    54    1
@<TRIPOS>SUBSTRUCTURE
     1 ZINC000185598309        1 TEMP              0 ****  ****    0 ROOT


##########                                Name:    ZINC000013809319
##########                DOCK_Rotatable_Bonds:                  10
##########                         Heavy_Atoms:                  30
##########                    Molecular_Weight:             407.469
##########                DOCK_Rotatable_Bonds:                  10
##########                       Formal_Charge:         -0.00999978
##########                     HBond_Acceptors:                   7
##########                        HBond_Donors:                   1
##########                         Heavy_Atoms:                  30
##########                          Grid_Score:          -34.557644
##########                     Grid_vdw_energy:          -34.142208
##########                      Grid_es_energy:           -0.415434
##########           Internal_energy_repulsive:           18.224922

@<TRIPOS>MOLECULE
ZINC000013809319
 55 57 1 0 0
SMALL
USER_CHARGES


@<TRIPOS>ATOM
      1 C1        -13.4202   -1.7416   57.7158 C.3     1  ZINC000013809319   -0.1500
      2 C2        -12.0746   -1.3312   57.1142 C.3     1  ZINC000013809319    0.0500
      3 O3        -12.0001   -1.7834   55.7608 O.3     1  ZINC000013809319   -0.3100
      4 C4        -11.0983   -1.1676   54.9538 C.ar    1  ZINC000013809319    0.1500
      5 C5        -11.4351   -0.8686   53.6395 C.ar    1  ZINC000013809319   -0.2200
      6 C6        -10.5226   -0.2434   52.8179 C.ar    1  ZINC000013809319   -0.0300
      7 C7         -9.2587    0.0898   53.3075 C.ar    1  ZINC000013809319   -0.1100
      8 C8         -8.2760    0.7619   52.4282 C.2     1  ZINC000013809319    0.2300
      9 C9         -7.8070    2.0266   52.7444 C.2     1  ZINC000013809319   -0.2900
     10 C10        -6.8741    2.6282   51.8820 C.2     1  ZINC000013809319    0.5300
     11 O11        -6.4333    3.7408   52.1210 O.2     1  ZINC000013809319   -0.5400
     12 N12        -6.4750    1.9513   50.7849 N.am    1  ZINC000013809319   -0.5100
     13 C13        -5.5034    2.5546   49.8695 C.3     1  ZINC000013809319    0.0700
     14 C14        -4.1181    2.0760   50.2205 C.2     1  ZINC000013809319    0.5000
     15 O15        -3.9326    0.9115   50.5040 O.2     1  ZINC000013809319   -0.5200
     16 N16        -3.0855    2.9421   50.2194 N.am    1  ZINC000013809319   -0.7200
     17 C17        -1.7386    2.4764   50.5590 C.3     1  ZINC000013809319    0.1300
     18 C18        -0.8381    2.5777   49.3261 C.3     1  ZINC000013809319   -0.0800
     19 C19        -1.1616    1.4550   48.3743 C.ar    1  ZINC000013809319   -0.1200
     20 C20        -1.1179    0.1450   48.8102 C.ar    1  ZINC000013809319   -0.0800
     21 C21        -1.4140   -0.8856   47.9370 C.ar    1  ZINC000013809319   -0.1500
     22 C22        -1.7549   -0.6080   46.6264 C.ar    1  ZINC000013809319   -0.0800
     23 C23        -1.8005    0.7007   46.1855 C.ar    1  ZINC000013809319   -0.2100
     24 C24        -1.5089    1.7367   47.0608 C.ar    1  ZINC000013809319    0.1300
     25 O25        -1.5530    3.0247   46.6297 O.3     1  ZINC000013809319   -0.3100
     26 C26        -1.8043    3.2350   45.2387 C.3     1  ZINC000013809319    0.0300
     27 C27        -6.9658    0.7223   50.5275 C.2     1  ZINC000013809319    0.3900
     28 N28        -7.8278    0.1474   51.3195 N.2     1  ZINC000013809319   -0.5300
     29 C29        -8.9237   -0.2121   54.6285 C.ar    1  ZINC000013809319   -0.0500
     30 C30        -9.8430   -0.8327   55.4460 C.ar    1  ZINC000013809319   -0.1600
     31 H31       -14.2284   -1.2932   57.1380 H       1  ZINC000013809319    0.0700
     32 H32       -13.5138   -2.8272   57.6898 H       1  ZINC000013809319    0.0700
     33 H33       -13.4770   -1.3967   58.7482 H       1  ZINC000013809319    0.0800
     34 H34       -11.9810   -0.2455   57.1403 H       1  ZINC000013809319    0.0600
     35 H35       -11.2664   -1.7795   57.6921 H       1  ZINC000013809319    0.0600
     36 H36       -12.4132   -1.1270   53.2612 H       1  ZINC000013809319    0.1300
     37 H37       -10.7849   -0.0116   51.7962 H       1  ZINC000013809319    0.1400
     38 H38        -8.1500    2.5380   53.6318 H       1  ZINC000013809319    0.1600
     39 H39        -5.7396    2.2641   48.8458 H       1  ZINC000013809319    0.1300
     40 H40        -5.5460    3.6402   49.9583 H       1  ZINC000013809319    0.1300
     41 H41        -3.2341    3.8738   49.9939 H       1  ZINC000013809319    0.4000
     42 H42        -1.3310    3.0952   51.3584 H       1  ZINC000013809319    0.0700
     43 H43        -1.7856    1.4390   50.8902 H       1  ZINC000013809319    0.0700
     44 H44        -1.0065    3.5339   48.8307 H       1  ZINC000013809319    0.0800
     45 H45         0.2057    2.5057   49.6316 H       1  ZINC000013809319    0.0800
     46 H46        -0.8518   -0.0744   49.8336 H       1  ZINC000013809319    0.1300
     47 H47        -1.3786   -1.9093   48.2797 H       1  ZINC000013809319    0.1300
     48 H48        -1.9855   -1.4146   45.9463 H       1  ZINC000013809319    0.1300
     49 H49        -2.0665    0.9171   45.1615 H       1  ZINC000013809319    0.1300
     50 H50        -2.7703    2.8046   44.9748 H       1  ZINC000013809319    0.0600
     51 H51        -1.8135    4.3045   45.0289 H       1  ZINC000013809319    0.1000
     52 H52        -1.0207    2.7563   44.6516 H       1  ZINC000013809319    0.0600
     53 H53        -6.6332    0.1981   49.6437 H       1  ZINC000013809319    0.2000
     54 H54        -7.9466    0.0443   55.0106 H       1  ZINC000013809319    0.1400
     55 H55        -9.5846   -1.0662   56.4683 H       1  ZINC000013809319    0.1400
@<TRIPOS>BOND
     1     1     2    1
     2     1    31    1
     3     1    32    1
     4     1    33    1
     5     2     3    1
     6     2    34    1
     7     2    35    1
     8     3     4    1
     9     4    30   ar
    10     4     5   ar
    11     5     6   ar
    12     5    36    1
    13     6     7   ar
    14     6    37    1
    15     7     8    1
    16     7    29   ar
    17     8    28    1
    18     8     9    2
    19     9    10    1
    20     9    38    1
    21    10    11    2
    22    10    12   am
    23    12    13    1
    24    12    27    1
    25    13    14    1
    26    13    39    1
    27    13    40    1
    28    14    15    2
    29    14    16   am
    30    16    17    1
    31    16    41    1
    32    17    18    1
    33    17    42    1
    34    17    43    1
    35    18    19    1
    36    18    44    1
    37    18    45    1
    38    19    24   ar
    39    19    20   ar
    40    20    21   ar
    41    20    46    1
    42    21    22   ar
    43    21    47    1
    44    22    23   ar
    45    22    48    1
    46    23    24   ar
    47    23    49    1
    48    24    25    1
    49    25    26    1
    50    26    50    1
    51    26    51    1
    52    26    52    1
    53    27    28    2
    54    27    53    1
    55    29    30   ar
    56    29    54    1
    57    30    55    1
@<TRIPOS>SUBSTRUCTURE
     1 ZINC000013809319        1 TEMP              0 ****  ****    0 ROOT


##########                                Name:    ZINC000767361237
##########                DOCK_Rotatable_Bonds:                  10
##########                         Heavy_Atoms:                  30
##########                    Molecular_Weight:             409.439
##########                DOCK_Rotatable_Bonds:                  10
##########                       Formal_Charge:          -0.0300005
##########                     HBond_Acceptors:                   7
##########                        HBond_Donors:                   1
##########                         Heavy_Atoms:                  30
##########                          Grid_Score:          -34.542835
##########                     Grid_vdw_energy:          -34.416080
##########                      Grid_es_energy:           -0.126756
##########           Internal_energy_repulsive:           16.469864

@<TRIPOS>MOLECULE
ZINC000767361237
 53 55 1 0 0
SMALL
USER_CHARGES


@<TRIPOS>ATOM
      1 C1         -0.8006    0.0241   46.7666 C.3     1  ZINC000767361237   -0.1200
      2 C2         -1.5535    0.8797   47.7527 C.ar    1  ZINC000767361237   -0.0900
      3 C3         -1.1104    0.9827   49.0580 C.ar    1  ZINC000767361237   -0.1200
      4 C4         -1.8010    1.7675   49.9624 C.ar    1  ZINC000767361237   -0.1100
      5 C5         -2.9345    2.4495   49.5615 C.ar    1  ZINC000767361237   -0.0800
      6 C6         -3.6877    3.3047   50.5477 C.3     1  ZINC000767361237   -0.0800
      7 H7         -4.3493    3.9832   50.0092 H       1  ZINC000767361237    0.0900
      8 C8         -2.6944    4.1160   51.3819 C.3     1  ZINC000767361237   -0.1500
      9 C9         -4.5168    2.4091   51.4704 C.3     1  ZINC000767361237    0.1300
     10 H10        -4.5898    2.8707   52.4552 H       1  ZINC000767361237    0.1400
     11 O11        -3.8858    1.1325   51.5883 O.3     1  ZINC000767361237   -0.5200
     12 C12        -5.8981    2.2354   50.8934 C.2     1  ZINC000767361237    0.4300
     13 O13        -6.0514    2.1923   49.6956 O.2     1  ZINC000767361237   -0.5000
     14 O14        -6.9580    2.1284   51.7100 O.3     1  ZINC000767361237   -0.3300
     15 C15        -8.2334    1.8051   51.0958 C.3     1  ZINC000767361237    0.0100
     16 C16        -9.2909    1.6922   52.1636 C.2     1  ZINC000767361237    0.3700
     17 O17       -10.0830    2.5891   52.3261 O.2     1  ZINC000767361237   -0.4200
     18 C18        -9.3597    0.4600   53.0285 C.3     1  ZINC000767361237   -0.1800
     19 C19        -9.8341    0.8471   54.4307 C.3     1  ZINC000767361237    0.1200
     20 N20        -9.3763   -0.1559   55.3953 N.am    1  ZINC000767361237   -0.5800
     21 C21       -10.0157   -1.3109   55.6538 C.2     1  ZINC000767361237    0.5700
     22 O22       -11.0481   -1.6816   55.1325 O.2     1  ZINC000767361237   -0.4600
     23 C23        -9.2511   -2.0536   56.6778 C.ar    1  ZINC000767361237   -0.1400
     24 C24        -9.4205   -3.2702   57.3185 C.ar    1  ZINC000767361237   -0.0400
     25 C25        -8.4908   -3.6871   58.2589 C.ar    1  ZINC000767361237   -0.0900
     26 C26        -7.3976   -2.8975   58.5609 C.ar    1  ZINC000767361237   -0.0900
     27 C27        -7.2151   -1.6776   57.9277 C.ar    1  ZINC000767361237   -0.0400
     28 C28        -8.1358   -1.2482   56.9859 C.ar    1  ZINC000767361237   -0.1400
     29 C29        -8.2581   -0.0458   56.1350 C.2     1  ZINC000767361237    0.5700
     30 O30        -7.4801    0.8865   56.1093 O.2     1  ZINC000767361237   -0.4600
     31 C31        -3.3769    2.3477   48.2559 C.ar    1  ZINC000767361237   -0.1100
     32 C32        -2.6840    1.5660   47.3503 C.ar    1  ZINC000767361237   -0.1200
     33 H33        -0.0376    0.6254   46.2722 H       1  ZINC000767361237    0.0700
     34 H34        -0.3260   -0.8043   47.2924 H       1  ZINC000767361237    0.0700
     35 H35        -1.4936   -0.3674   46.0219 H       1  ZINC000767361237    0.0700
     36 H36        -0.2248    0.4498   49.3712 H       1  ZINC000767361237    0.1200
     37 H37        -1.4551    1.8473   50.9825 H       1  ZINC000767361237    0.1200
     38 H38        -3.2391    4.7346   52.0952 H       1  ZINC000767361237    0.0800
     39 H39        -2.0327    3.4375   51.9204 H       1  ZINC000767361237    0.0700
     40 H40        -2.1037    4.7540   50.7245 H       1  ZINC000767361237    0.0600
     41 H41        -4.4096    0.4778   52.0701 H       1  ZINC000767361237    0.3900
     42 H42        -8.5085    2.5922   50.3937 H       1  ZINC000767361237    0.1100
     43 H43        -8.1508    0.8569   50.5646 H       1  ZINC000767361237    0.1100
     44 H44       -10.0601   -0.2518   52.5917 H       1  ZINC000767361237    0.1100
     45 H45        -8.3713    0.0050   53.0921 H       1  ZINC000767361237    0.1100
     46 H46        -9.4240    1.8212   54.6971 H       1  ZINC000767361237    0.1100
     47 H47       -10.9230    0.8950   54.4455 H       1  ZINC000767361237    0.1100
     48 H48       -10.2731   -3.8911   57.0866 H       1  ZINC000767361237    0.1400
     49 H49        -8.6221   -4.6351   58.7590 H       1  ZINC000767361237    0.1400
     50 H50        -6.6804   -3.2330   59.2955 H       1  ZINC000767361237    0.1400
     51 H51        -6.3586   -1.0649   58.1674 H       1  ZINC000767361237    0.1400
     52 H52        -4.2622    2.8809   47.9425 H       1  ZINC000767361237    0.1200
     53 H53        -3.0296    1.4863   46.3302 H       1  ZINC000767361237    0.1200
@<TRIPOS>BOND
     1     1     2    1
     2     1    33    1
     3     1    34    1
     4     1    35    1
     5     2    32   ar
     6     2     3   ar
     7     3     4   ar
     8     3    36    1
     9     4     5   ar
    10     4    37    1
    11     5     6    1
    12     5    31   ar
    13     6     7    1
    14     6     8    1
    15     6     9    1
    16     8    38    1
    17     8    39    1
    18     8    40    1
    19     9    10    1
    20     9    11    1
    21     9    12    1
    22    11    41    1
    23    12    13    2
    24    12    14    1
    25    14    15    1
    26    15    16    1
    27    15    42    1
    28    15    43    1
    29    16    17    2
    30    16    18    1
    31    18    19    1
    32    18    44    1
    33    18    45    1
    34    19    20    1
    35    19    46    1
    36    19    47    1
    37    20    29   am
    38    20    21   am
    39    21    22    2
    40    21    23    1
    41    23    28   ar
    42    23    24   ar
    43    24    25   ar
    44    24    48    1
    45    25    26   ar
    46    25    49    1
    47    26    27   ar
    48    26    50    1
    49    27    28   ar
    50    27    51    1
    51    28    29    1
    52    29    30    2
    53    31    32   ar
    54    31    52    1
    55    32    53    1
@<TRIPOS>SUBSTRUCTURE
     1 ZINC000767361237        1 TEMP              0 ****  ****    0 ROOT


##########                                Name:    ZINC000489403631
##########                DOCK_Rotatable_Bonds:                   7
##########                         Heavy_Atoms:                  28
##########                    Molecular_Weight:             381.391
##########                DOCK_Rotatable_Bonds:                   7
##########                       Formal_Charge:          -0.0300003
##########                     HBond_Acceptors:                   9
##########                        HBond_Donors:                   1
##########                         Heavy_Atoms:                  28
##########                          Grid_Score:          -34.522221
##########                     Grid_vdw_energy:          -33.998119
##########                      Grid_es_energy:           -0.524102
##########           Internal_energy_repulsive:           10.967882

@<TRIPOS>MOLECULE
ZINC000489403631
 47 49 1 0 0
SMALL
USER_CHARGES


@<TRIPOS>ATOM
      1 C1         -9.5530    3.6199   51.5120 C.3     1  ZINC000489403631   -0.1100
      2 C2         -8.5347    2.5186   51.3673 C.ar    1  ZINC000489403631   -0.0800
      3 C3         -7.2921    2.7934   50.8323 C.ar    1  ZINC000489403631   -0.0900
      4 C4         -6.3538    1.7783   50.6990 C.ar    1  ZINC000489403631    0.1200
      5 N5         -5.0926    2.0568   50.1565 N.am    1  ZINC000489403631   -0.6600
      6 C6         -4.0735    2.4078   50.9657 C.2     1  ZINC000489403631    0.5100
      7 O7         -4.2484    2.4827   52.1636 O.2     1  ZINC000489403631   -0.4600
      8 C8         -2.7167    2.7073   50.3821 C.3     1  ZINC000489403631    0.1700
      9 C9         -2.5156    4.2224   50.3103 C.3     1  ZINC000489403631   -0.1700
     10 C10        -1.6328    2.0904   51.2682 C.3     1  ZINC000489403631   -0.1700
     11 N11        -2.6282    2.1386   49.0349 N.pl3   1  ZINC000489403631   -0.3400
     12 C12        -2.1075    0.9359   48.7135 C.2     1  ZINC000489403631    0.1500
     13 C13        -2.2139    0.7852   47.3729 C.2     1  ZINC000489403631   -0.1900
     14 N14        -1.7680   -0.3895   46.5905 N.pl3   1  ZINC000489403631    0.0700
     15 O15        -1.2208   -1.3224   47.1507 O.2     1  ZINC000489403631   -0.1700
     16 O16        -1.9482   -0.4231   45.3864 O.2     1  ZINC000489403631   -0.1600
     17 C17        -2.8203    1.9354   46.8573 C.2     1  ZINC000489403631    0.1000
     18 N18        -3.0746    2.7447   47.8535 N.2     1  ZINC000489403631   -0.2200
     19 C19        -6.6660    0.4876   51.1039 C.ar    1  ZINC000489403631   -0.1100
     20 C20        -7.9094    0.2139   51.6390 C.ar    1  ZINC000489403631   -0.1700
     21 C21        -8.8442    1.2294   51.7772 C.ar    1  ZINC000489403631    0.1000
     22 O22       -10.0681    0.9593   52.3040 O.3     1  ZINC000489403631   -0.2500
     23 C23       -10.1199    0.3478   53.5145 C.ar    1  ZINC000489403631    0.1400
     24 C24        -9.2277    0.6921   54.5274 C.ar    1  ZINC000489403631   -0.2000
     25 C25        -9.3128    0.0472   55.7440 C.ar    1  ZINC000489403631    0.1200
     26 N26       -10.2240   -0.8842   55.9534 N.ar    1  ZINC000489403631   -0.4900
     27 C27       -11.0864   -1.2378   55.0192 C.ar    1  ZINC000489403631    0.1200
     28 C28       -11.0701   -0.6360   53.7778 C.ar    1  ZINC000489403631   -0.1800
     29 H29        -9.4365    4.0969   52.4852 H       1  ZINC000489403631    0.0700
     30 H30        -9.4032    4.3590   50.7249 H       1  ZINC000489403631    0.0700
     31 H31       -10.5558    3.2007   51.4306 H       1  ZINC000489403631    0.0700
     32 H32        -7.0499    3.7976   50.5170 H       1  ZINC000489403631    0.1500
     33 H33        -4.9527    1.9969   49.1985 H       1  ZINC000489403631    0.4100
     34 H34        -2.5815    4.6455   51.3127 H       1  ZINC000489403631    0.1000
     35 H35        -1.5343    4.4390   49.8882 H       1  ZINC000489403631    0.0900
     36 H36        -3.2878    4.6619   49.6789 H       1  ZINC000489403631    0.0800
     37 H37        -1.7761    1.0110   51.3194 H       1  ZINC000489403631    0.0800
     38 H38        -0.6515    2.3070   50.8462 H       1  ZINC000489403631    0.0900
     39 H39        -1.6987    2.5135   52.2706 H       1  ZINC000489403631    0.0900
     40 H40        -1.6819    0.2216   49.4027 H       1  ZINC000489403631    0.2000
     41 H41        -3.0444    2.1212   45.8174 H       1  ZINC000489403631    0.2100
     42 H42        -5.9369   -0.3023   51.0002 H       1  ZINC000489403631    0.1300
     43 H43        -8.1524   -0.7902   51.9541 H       1  ZINC000489403631    0.1300
     44 H44        -8.4794    1.4532   54.3624 H       1  ZINC000489403631    0.1400
     45 H45        -8.6249    0.3075   56.5348 H       1  ZINC000489403631    0.1600
     46 H46       -11.8166   -2.0050   55.2304 H       1  ZINC000489403631    0.1700
     47 H47       -11.7789   -0.9298   53.0177 H       1  ZINC000489403631    0.1500
@<TRIPOS>BOND
     1     1     2    1
     2     1    29    1
     3     1    30    1
     4     1    31    1
     5     2    21   ar
     6     2     3   ar
     7     3     4   ar
     8     3    32    1
     9     4     5    1
    10     4    19   ar
    11     5     6   am
    12     5    33    1
    13     6     7    2
    14     6     8    1
    15     8     9    1
    16     8    10    1
    17     8    11    1
    18     9    34    1
    19     9    35    1
    20     9    36    1
    21    10    37    1
    22    10    38    1
    23    10    39    1
    24    11    18    1
    25    11    12    1
    26    12    13    2
    27    12    40    1
    28    13    14    1
    29    13    17    1
    30    14    15    2
    31    14    16    2
    32    17    18    2
    33    17    41    1
    34    19    20   ar
    35    19    42    1
    36    20    21   ar
    37    20    43    1
    38    21    22    1
    39    22    23    1
    40    23    28   ar
    41    23    24   ar
    42    24    25   ar
    43    24    44    1
    44    25    26   ar
    45    25    45    1
    46    26    27   ar
    47    27    28   ar
    48    27    46    1
    49    28    47    1
@<TRIPOS>SUBSTRUCTURE
     1 ZINC000489403631        1 TEMP              0 ****  ****    0 ROOT


##########                                Name:    ZINC001574157642
##########                DOCK_Rotatable_Bonds:                   9
##########                         Heavy_Atoms:                  28
##########                    Molecular_Weight:             387.445
##########                DOCK_Rotatable_Bonds:                   9
##########                       Formal_Charge:          -0.0400004
##########                     HBond_Acceptors:                  11
##########                        HBond_Donors:                   4
##########                         Heavy_Atoms:                  28
##########                          Grid_Score:          -34.502842
##########                     Grid_vdw_energy:          -35.489311
##########                      Grid_es_energy:            0.986470
##########           Internal_energy_repulsive:           15.018592

@<TRIPOS>MOLECULE
ZINC001574157642
 53 55 1 0 0
SMALL
USER_CHARGES


@<TRIPOS>ATOM
      1 C1        -14.1398   -0.6444   58.9840 C.3     1  ZINC001574157642   -0.1400
      2 C2        -13.7013   -1.9199   58.2616 C.3     1  ZINC001574157642   -0.0900
      3 C3        -14.5450   -3.0987   58.7508 C.3     1  ZINC001574157642   -0.1500
      4 C4        -13.8954   -1.7446   56.7541 C.3     1  ZINC001574157642   -0.1300
      5 C5        -12.6808   -1.0254   56.1637 C.3     1  ZINC001574157642    0.1300
      6 H6        -12.5212   -0.0866   56.6940 H       1  ZINC001574157642    0.1100
      7 C7        -12.9288   -0.7383   54.6815 C.3     1  ZINC001574157642    0.1100
      8 N8        -12.4732    0.6173   54.3638 N.pl3   1  ZINC001574157642   -0.7100
      9 C9        -11.3387    0.8040   53.5840 C.ar    1  ZINC001574157642    0.3700
     10 C10       -10.3388   -0.1669   53.5651 C.ar    1  ZINC001574157642    0.0000
     11 N11        -9.2619    0.0097   52.8257 N.ar    1  ZINC001574157642   -0.3700
     12 C12        -9.1294    1.1146   52.0971 C.ar    1  ZINC001574157642    0.0800
     13 C13        -7.9175    1.3136   51.2642 C.2     1  ZINC001574157642    0.2300
     14 N14        -7.6547    2.3486   50.4908 N.2     1  ZINC001574157642   -0.2700
     15 N15        -6.5086    2.1462   49.9374 N.pl3   1  ZINC001574157642   -0.2300
     16 N16        -6.0370    1.0164   50.3352 N.2     1  ZINC001574157642   -0.0400
     17 N17        -6.8740    0.4788   51.1563 N.2     1  ZINC001574157642   -0.2600
     18 C18       -10.1290    2.0846   52.1157 C.ar    1  ZINC001574157642    0.1600
     19 N19       -11.2098    1.9044   52.8529 N.ar    1  ZINC001574157642   -0.5000
     20 N20       -11.4947   -1.8737   56.3050 N.am    1  ZINC001574157642   -0.7300
     21 C21       -10.4447   -1.4478   57.0346 C.2     1  ZINC001574157642    0.5200
     22 O22       -10.4810   -0.3616   57.5731 O.2     1  ZINC001574157642   -0.5100
     23 C23        -9.2253   -2.3211   57.1814 C.3     1  ZINC001574157642   -0.1300
     24 H24        -8.8462   -2.5886   56.1951 H       1  ZINC001574157642    0.1100
     25 C25        -9.5938   -3.5937   57.9535 C.3     1  ZINC001574157642   -0.1000
     26 C26        -8.3907   -4.5398   57.9292 C.3     1  ZINC001574157642   -0.1400
     27 C27        -7.1471   -3.7951   58.3217 C.2     1  ZINC001574157642    0.5200
     28 O28        -6.1783   -4.4378   58.6675 O.2     1  ZINC001574157642   -0.5500
     29 N29        -7.0506   -2.4652   58.3099 N.am    1  ZINC001574157642   -0.7200
     30 C30        -8.1453   -1.5679   57.9592 C.3     1  ZINC001574157642    0.1200
     31 H31       -15.1915   -0.4506   58.7731 H       1  ZINC001574157642    0.0400
     32 H32       -14.0015   -0.7693   60.0579 H       1  ZINC001574157642    0.0500
     33 H33       -13.5387    0.1955   58.6355 H       1  ZINC001574157642    0.0700
     34 H34       -12.6496   -2.1136   58.4724 H       1  ZINC001574157642    0.0700
     35 H35       -15.5968   -2.9050   58.5399 H       1  ZINC001574157642    0.0500
     36 H36       -14.2327   -4.0074   58.2362 H       1  ZINC001574157642    0.0500
     37 H37       -14.4068   -3.2236   59.8247 H       1  ZINC001574157642    0.0500
     38 H38       -14.0017   -2.7229   56.2853 H       1  ZINC001574157642    0.0700
     39 H39       -14.7926   -1.1538   56.5695 H       1  ZINC001574157642    0.0800
     40 H40       -12.3789   -1.4579   54.0750 H       1  ZINC001574157642    0.0800
     41 H41       -13.9945   -0.8227   54.4685 H       1  ZINC001574157642    0.0900
     42 H42       -12.9637    1.3847   54.6980 H       1  ZINC001574157642    0.4100
     43 H43       -10.4463   -1.0641   54.1567 H       1  ZINC001574157642    0.1700
     44 H44        -6.0703    2.7503   49.3178 H       1  ZINC001574157642    0.4800
     45 H45       -10.0218    2.9820   51.5245 H       1  ZINC001574157642    0.1800
     46 H46       -11.4652   -2.7419   55.8734 H       1  ZINC001574157642    0.4000
     47 H47        -9.8397   -3.3392   58.9845 H       1  ZINC001574157642    0.0800
     48 H48       -10.4492   -4.0754   57.4799 H       1  ZINC001574157642    0.0900
     49 H49        -8.5592   -5.3579   58.6295 H       1  ZINC001574157642    0.1100
     50 H50        -8.2685   -4.9443   56.9244 H       1  ZINC001574157642    0.1000
     51 H51        -6.1978   -2.0690   58.5474 H       1  ZINC001574157642    0.4000
     52 H52        -7.7599   -0.7504   57.3497 H       1  ZINC001574157642    0.0800
     53 H53        -8.5819   -1.1590   58.8703 H       1  ZINC001574157642    0.0700
@<TRIPOS>BOND
     1     1     2    1
     2     1    31    1
     3     1    32    1
     4     1    33    1
     5     2     3    1
     6     2     4    1
     7     2    34    1
     8     3    35    1
     9     3    36    1
    10     3    37    1
    11     4     5    1
    12     4    38    1
    13     4    39    1
    14     5     6    1
    15     5     7    1
    16     5    20    1
    17     7     8    1
    18     7    40    1
    19     7    41    1
    20     8     9    1
    21     8    42    1
    22     9    19   ar
    23     9    10   ar
    24    10    11   ar
    25    10    43    1
    26    11    12   ar
    27    12    13    1
    28    12    18   ar
    29    13    17    1
    30    13    14    2
    31    14    15    1
    32    15    16    1
    33    15    44    1
    34    16    17    2
    35    18    19   ar
    36    18    45    1
    37    20    21   am
    38    20    46    1
    39    21    22    2
    40    21    23    1
    41    23    24    1
    42    23    30    1
    43    23    25    1
    44    25    26    1
    45    25    47    1
    46    25    48    1
    47    26    27    1
    48    26    49    1
    49    26    50    1
    50    27    28    2
    51    27    29   am
    52    29    30    1
    53    29    51    1
    54    30    52    1
    55    30    53    1
@<TRIPOS>SUBSTRUCTURE
     1 ZINC001574157642        1 TEMP              0 ****  ****    0 ROOT


##########                                Name:    ZINC000859496582
##########                DOCK_Rotatable_Bonds:                  10
##########                         Heavy_Atoms:                  26
##########                    Molecular_Weight:             361.438
##########                DOCK_Rotatable_Bonds:                  10
##########                       Formal_Charge:           0.0100006
##########                     HBond_Acceptors:                   6
##########                        HBond_Donors:                   0
##########                         Heavy_Atoms:                  26
##########                          Grid_Score:          -34.361851
##########                     Grid_vdw_energy:          -32.921623
##########                      Grid_es_energy:           -1.440228
##########           Internal_energy_repulsive:           15.831707

@<TRIPOS>MOLECULE
ZINC000859496582
 53 54 1 0 0
SMALL
USER_CHARGES


@<TRIPOS>ATOM
      1 C1         -6.8916   -3.0970   58.6081 C.3     1  ZINC000859496582    0.0300
      2 O2         -8.1949   -2.7535   58.0679 O.3     1  ZINC000859496582   -0.3600
      3 C3         -8.4341   -1.4536   57.8337 C.2     1  ZINC000859496582    0.4600
      4 O4         -9.4865   -1.1107   57.3492 O.2     1  ZINC000859496582   -0.5100
      5 C5         -7.3901   -0.4219   58.1752 C.3     1  ZINC000859496582   -0.1100
      6 C6         -7.5169    0.7672   57.2207 C.3     1  ZINC000859496582   -0.1100
      7 C7         -6.4555    1.8137   57.5660 C.3     1  ZINC000859496582   -0.1200
      8 C8         -6.5927    3.0099   56.6219 C.3     1  ZINC000859496582    0.0700
      9 O9         -6.0701    2.6567   55.3141 O.3     1  ZINC000859496582   -0.3500
     10 C10        -6.2298    3.5564   54.3308 C.2     1  ZINC000859496582    0.4700
     11 O11        -6.6724    4.6525   54.5809 O.2     1  ZINC000859496582   -0.5000
     12 C12        -5.8570    3.1993   52.9149 C.3     1  ZINC000859496582   -0.1000
     13 H13        -5.9029    4.0915   52.2906 H       1  ZINC000859496582    0.1200
     14 C14        -6.8336    2.1500   52.3788 C.3     1  ZINC000859496582   -0.1100
     15 C15        -6.4759    1.8107   50.9300 C.3     1  ZINC000859496582   -0.1300
     16 C16        -5.0615    1.2243   50.8815 C.3     1  ZINC000859496582    0.1100
     17 N17        -4.1367    2.1661   51.5267 N.am    1  ZINC000859496582   -0.6100
     18 C18        -3.0350    2.5976   50.8813 C.2     1  ZINC000859496582    0.5700
     19 O19        -2.2776    3.3769   51.4259 O.2     1  ZINC000859496582   -0.5300
     20 C20        -2.7477    2.1232   49.5108 C.ar    1  ZINC000859496582   -0.1400
     21 C21        -3.3008    2.7808   48.4110 C.ar    1  ZINC000859496582   -0.0900
     22 C22        -3.0284    2.3332   47.1348 C.ar    1  ZINC000859496582   -0.1200
     23 C23        -2.2091    1.2347   46.9439 C.ar    1  ZINC000859496582   -0.0600
     24 C24        -1.9162    0.7511   45.5470 C.3     1  ZINC000859496582   -0.1200
     25 C25        -1.6572    0.5786   48.0298 C.ar    1  ZINC000859496582   -0.1200
     26 C26        -1.9174    1.0192   49.3110 C.ar    1  ZINC000859496582   -0.0600
     27 C27        -4.4353    2.6293   52.8888 C.3     1  ZINC000859496582    0.1100
     28 H28        -6.7520   -2.5964   59.5661 H       1  ZINC000859496582    0.0600
     29 H29        -6.8299   -4.1761   58.7495 H       1  ZINC000859496582    0.1000
     30 H30        -6.1147   -2.7766   57.9140 H       1  ZINC000859496582    0.0600
     31 H31        -7.5367   -0.0821   59.2004 H       1  ZINC000859496582    0.1100
     32 H32        -6.3979   -0.8626   58.0768 H       1  ZINC000859496582    0.1100
     33 H33        -7.3719    0.4271   56.1954 H       1  ZINC000859496582    0.0800
     34 H34        -8.5084    1.2089   57.3202 H       1  ZINC000859496582    0.0800
     35 H35        -6.5934    2.1453   58.5950 H       1  ZINC000859496582    0.0800
     36 H36        -5.4636    1.3754   57.4553 H       1  ZINC000859496582    0.0800
     37 H37        -7.6441    3.2827   56.5315 H       1  ZINC000859496582    0.0700
     38 H38        -6.0313    3.8544   57.0217 H       1  ZINC000859496582    0.0700
     39 H39        -6.7699    1.2491   52.9892 H       1  ZINC000859496582    0.0800
     40 H40        -7.8489    2.5446   52.4193 H       1  ZINC000859496582    0.0800
     41 H41        -7.1860    1.0808   50.5413 H       1  ZINC000859496582    0.0900
     42 H42        -6.5155    2.7159   50.3240 H       1  ZINC000859496582    0.0700
     43 H43        -5.0424    0.2721   51.4116 H       1  ZINC000859496582    0.0700
     44 H44        -4.7641    1.0731   49.8437 H       1  ZINC000859496582    0.1000
     45 H45        -3.9411    3.6380   48.5587 H       1  ZINC000859496582    0.1300
     46 H46        -3.4558    2.8411   46.2829 H       1  ZINC000859496582    0.1300
     47 H47        -1.0261    1.2530   45.1679 H       1  ZINC000859496582    0.0800
     48 H48        -1.7471   -0.3255   45.5632 H       1  ZINC000859496582    0.0700
     49 H49        -2.7637    0.9760   44.8995 H       1  ZINC000859496582    0.0700
     50 H50        -1.0182   -0.2780   47.8740 H       1  ZINC000859496582    0.1300
     51 H51        -1.4857    0.5063   50.1578 H       1  ZINC000859496582    0.1300
     52 H52        -3.7247    3.4046   53.1751 H       1  ZINC000859496582    0.1100
     53 H53        -4.3653    1.7920   53.5831 H       1  ZINC000859496582    0.0800
@<TRIPOS>BOND
     1     1     2    1
     2     1    28    1
     3     1    29    1
     4     1    30    1
     5     2     3    1
     6     3     4    2
     7     3     5    1
     8     5     6    1
     9     5    31    1
    10     5    32    1
    11     6     7    1
    12     6    33    1
    13     6    34    1
    14     7     8    1
    15     7    35    1
    16     7    36    1
    17     8     9    1
    18     8    37    1
    19     8    38    1
    20     9    10    1
    21    10    11    2
    22    10    12    1
    23    12    13    1
    24    12    27    1
    25    12    14    1
    26    14    15    1
    27    14    39    1
    28    14    40    1
    29    15    16    1
    30    15    41    1
    31    15    42    1
    32    16    17    1
    33    16    43    1
    34    16    44    1
    35    17    18   am
    36    17    27    1
    37    18    19    2
    38    18    20    1
    39    20    26   ar
    40    20    21   ar
    41    21    22   ar
    42    21    45    1
    43    22    23   ar
    44    22    46    1
    45    23    24    1
    46    23    25   ar
    47    24    47    1
    48    24    48    1
    49    24    49    1
    50    25    26   ar
    51    25    50    1
    52    26    51    1
    53    27    52    1
    54    27    53    1
@<TRIPOS>SUBSTRUCTURE
     1 ZINC000859496582        1 TEMP              0 ****  ****    0 ROOT


##########                                Name:    ZINC000429196987
##########                DOCK_Rotatable_Bonds:                   7
##########                         Heavy_Atoms:                  28
##########                    Molecular_Weight:             403.505
##########                DOCK_Rotatable_Bonds:                   7
##########                       Formal_Charge:          -0.0399997
##########                     HBond_Acceptors:                   9
##########                        HBond_Donors:                   1
##########                         Heavy_Atoms:                  28
##########                          Grid_Score:          -34.336956
##########                     Grid_vdw_energy:          -32.323296
##########                      Grid_es_energy:           -2.013660
##########           Internal_energy_repulsive:           10.911598

@<TRIPOS>MOLECULE
ZINC000429196987
 53 55 1 0 0
SMALL
USER_CHARGES


@<TRIPOS>ATOM
      1 C1         -4.2469    3.5107   56.3447 C.3     1  ZINC000429196987    0.0800
      2 N2         -5.4498    3.4895   55.5087 N.am    1  ZINC000429196987   -0.6300
      3 C3         -6.7740    3.5856   56.1280 C.3     1  ZINC000429196987    0.1600
      4 C4         -7.1842    2.2324   56.6491 C.ar    1  ZINC000429196987   -0.0600
      5 C5         -7.8046    1.3271   55.8086 C.ar    1  ZINC000429196987   -0.1300
      6 C6         -8.1810    0.0858   56.2866 C.ar    1  ZINC000429196987   -0.0300
      7 C7         -7.9365   -0.2503   57.6050 C.ar    1  ZINC000429196987   -0.6600
      8 S8         -8.4167   -1.8323   58.2144 S.o2    1  ZINC000429196987    2.5000
      9 C9         -6.8828   -2.5527   58.8617 C.3     1  ZINC000429196987   -0.6500
     10 O10        -9.3169   -1.5410   59.2745 O.2     1  ZINC000429196987   -0.9400
     11 O11        -8.8494   -2.5366   57.0585 O.2     1  ZINC000429196987   -0.9400
     12 C12        -7.3149    0.6545   58.4451 C.ar    1  ZINC000429196987   -0.0300
     13 C13        -6.9351    1.8943   57.9661 C.ar    1  ZINC000429196987   -0.1100
     14 C14        -5.3382    3.3817   54.1699 C.2     1  ZINC000429196987    0.7100
     15 O15        -6.3365    3.3656   53.4760 O.2     1  ZINC000429196987   -0.5800
     16 N16        -4.1201    3.2917   53.6003 N.am    1  ZINC000429196987   -0.7400
     17 C17        -3.9989    3.1728   52.1452 C.3     1  ZINC000429196987    0.1600
     18 C18        -2.5779    3.5502   51.7174 C.3     1  ZINC000429196987   -0.1300
     19 C19        -2.4398    3.3657   50.2045 C.3     1  ZINC000429196987    0.0700
     20 N20        -2.7210    1.9679   49.8530 N.3     1  ZINC000429196987   -0.4700
     21 C21        -2.4772    1.7346   48.5040 C.ar    1  ZINC000429196987    0.2500
     22 C22        -1.7465    0.6151   48.1075 C.ar    1  ZINC000429196987   -0.1300
     23 C23        -1.5311    0.4280   46.7513 C.ar    1  ZINC000429196987   -0.1000
     24 C24        -2.0553    1.3651   45.8720 C.ar    1  ZINC000429196987    0.0200
     25 N25        -2.7350    2.3955   46.3346 N.ar    1  ZINC000429196987   -0.2200
     26 N26        -2.9430    2.5722   47.5888 N.ar    1  ZINC000429196987   -0.2800
     27 C27        -4.0958    1.5966   50.2112 C.3     1  ZINC000429196987    0.0600
     28 C28        -4.2834    1.7283   51.7243 C.3     1  ZINC000429196987   -0.1200
     29 H29        -3.9857    2.4920   56.6313 H       1  ZINC000429196987    0.0600
     30 H30        -3.4230    3.9531   55.7846 H       1  ZINC000429196987    0.0700
     31 H31        -4.4370    4.1027   57.2399 H       1  ZINC000429196987    0.0800
     32 H32        -6.7385    4.2972   56.9529 H       1  ZINC000429196987    0.1000
     33 H33        -7.4980    3.9243   55.3870 H       1  ZINC000429196987    0.0900
     34 H34        -7.9956    1.5897   54.7785 H       1  ZINC000429196987    0.1300
     35 H35        -8.6662   -0.6212   55.6302 H       1  ZINC000429196987    0.1400
     36 H36        -6.4873   -1.9150   59.6523 H       1  ZINC000429196987    0.1300
     37 H37        -7.0888   -3.5446   59.2639 H       1  ZINC000429196987    0.1300
     38 H38        -6.1509   -2.6313   58.0579 H       1  ZINC000429196987    0.1300
     39 H39        -7.1235    0.3918   59.4751 H       1  ZINC000429196987    0.1400
     40 H40        -6.4494    2.6012   58.6225 H       1  ZINC000429196987    0.1400
     41 H41        -3.3236    3.3058   54.1538 H       1  ZINC000429196987    0.4000
     42 H42        -4.7143    3.8399   51.6643 H       1  ZINC000429196987    0.0900
     43 H43        -2.3844    4.5913   51.9763 H       1  ZINC000429196987    0.0800
     44 H44        -1.8611    2.9081   52.2293 H       1  ZINC000429196987    0.0700
     45 H45        -3.1472    4.0182   49.6930 H       1  ZINC000429196987    0.0600
     46 H46        -1.4249    3.6199   49.8988 H       1  ZINC000429196987    0.0900
     47 H47        -1.3601   -0.0839   48.8345 H       1  ZINC000429196987    0.1500
     48 H48        -0.9716   -0.4218   46.3893 H       1  ZINC000429196987    0.1500
     49 H49        -1.9061    1.2503   44.8085 H       1  ZINC000429196987    0.1700
     50 H50        -4.7955    2.2574   49.6996 H       1  ZINC000429196987    0.0500
     51 H51        -4.2837    0.5658   49.9104 H       1  ZINC000429196987    0.0900
     52 H52        -3.5935    1.0575   52.2364 H       1  ZINC000429196987    0.0800
     53 H53        -5.3084    1.4676   51.9881 H       1  ZINC000429196987    0.0800
@<TRIPOS>BOND
     1     1     2    1
     2     1    29    1
     3     1    30    1
     4     1    31    1
     5     2     3    1
     6     2    14   am
     7     3     4    1
     8     3    32    1
     9     3    33    1
    10     4    13   ar
    11     4     5   ar
    12     5     6   ar
    13     5    34    1
    14     6     7   ar
    15     6    35    1
    16     7     8    1
    17     7    12   ar
    18     8     9    1
    19     8    10    2
    20     8    11    2
    21     9    36    1
    22     9    37    1
    23     9    38    1
    24    12    13   ar
    25    12    39    1
    26    13    40    1
    27    14    15    2
    28    14    16   am
    29    16    17    1
    30    16    41    1
    31    17    28    1
    32    17    18    1
    33    17    42    1
    34    18    19    1
    35    18    43    1
    36    18    44    1
    37    19    20    1
    38    19    45    1
    39    19    46    1
    40    20    21    1
    41    20    27    1
    42    21    26   ar
    43    21    22   ar
    44    22    23   ar
    45    22    47    1
    46    23    24   ar
    47    23    48    1
    48    24    25   ar
    49    24    49    1
    50    25    26   ar
    51    27    28    1
    52    27    50    1
    53    27    51    1
    54    28    52    1
    55    28    53    1
@<TRIPOS>SUBSTRUCTURE
     1 ZINC000429196987        1 TEMP              0 ****  ****    0 ROOT


##########                                Name:    ZINC000375302598
##########                DOCK_Rotatable_Bonds:                   8
##########                         Heavy_Atoms:                  27
##########                    Molecular_Weight:             368.479
##########                DOCK_Rotatable_Bonds:                   8
##########                       Formal_Charge:               -0.02
##########                     HBond_Acceptors:                   6
##########                        HBond_Donors:                   1
##########                         Heavy_Atoms:                  27
##########                          Grid_Score:          -34.304737
##########                     Grid_vdw_energy:          -34.593815
##########                      Grid_es_energy:            0.289076
##########           Internal_energy_repulsive:            8.200439

@<TRIPOS>MOLECULE
ZINC000375302598
 55 58 1 0 0
SMALL
USER_CHARGES


@<TRIPOS>ATOM
      1 C1         -8.0417   -4.5607   58.1608 C.3     1  ZINC000375302598   -0.1500
      2 C2         -6.8508   -3.6803   58.5451 C.3     1  ZINC000375302598   -0.0300
      3 C3         -7.2635   -2.2315   58.5048 C.2     1  ZINC000375302598    0.1800
      4 N4         -8.1757   -1.7006   57.7267 N.2     1  ZINC000375302598   -0.4700
      5 C5         -8.2010   -0.3925   58.0387 C.2     1  ZINC000375302598    0.1800
      6 C6         -9.0891    0.6553   57.4186 C.3     1  ZINC000375302598    0.1500
      7 N7         -9.4558    0.2430   56.0571 N.3     1  ZINC000375302598   -0.5300
      8 C8        -10.9030    0.3672   55.8414 C.3     1  ZINC000375302598    0.0500
      9 C9        -11.2665   -0.2052   54.4695 C.3     1  ZINC000375302598   -0.1100
     10 C10       -10.5025    0.5587   53.3844 C.3     1  ZINC000375302598   -0.1300
     11 C11        -8.9999    0.4540   53.6596 C.3     1  ZINC000375302598    0.1500
     12 H12        -8.6925   -0.5905   53.6090 H       1  ZINC000375302598    0.1000
     13 N13        -8.2641    1.2294   52.6578 N.am    1  ZINC000375302598   -0.7300
     14 C14        -7.8199    0.6306   51.5350 C.2     1  ZINC000375302598    0.5200
     15 O15        -8.0280   -0.5506   51.3548 O.2     1  ZINC000375302598   -0.5300
     16 C16        -7.0645    1.4285   50.5037 C.3     1  ZINC000375302598   -0.1100
     17 C17        -6.1874    2.4677   51.2050 C.3     1  ZINC000375302598   -0.1200
     18 H18        -6.6114    2.9089   52.1070 H       1  ZINC000375302598    0.1200
     19 C19        -5.3117    3.3622   50.3253 C.3     1  ZINC000375302598   -0.1700
     20 C20        -4.6728    2.2549   51.1672 C.3     1  ZINC000375302598   -0.1100
     21 H21        -4.3010    1.3747   50.6426 H       1  ZINC000375302598    0.1100
     22 C22        -3.8806    2.6718   52.3795 C.ar    1  ZINC000375302598   -0.0500
     23 C23        -4.3937    2.4625   53.6460 C.ar    1  ZINC000375302598   -0.1200
     24 C24        -3.6670    2.8449   54.7580 C.ar    1  ZINC000375302598   -0.1200
     25 C25        -2.4270    3.4361   54.6036 C.ar    1  ZINC000375302598   -0.1300
     26 C26        -1.9136    3.6447   53.3372 C.ar    1  ZINC000375302598   -0.1200
     27 C27        -2.6384    3.2584   52.2253 C.ar    1  ZINC000375302598   -0.1100
     28 C28        -8.7020    1.0073   55.0550 C.3     1  ZINC000375302598    0.0500
     29 N29        -7.3193   -0.1983   58.9732 N.2     1  ZINC000375302598   -0.3800
     30 O30        -6.7737   -1.2432   59.2594 O.3     1  ZINC000375302598    0.0800
     31 H31        -8.3727   -4.3050   57.1542 H       1  ZINC000375302598    0.0600
     32 H32        -7.7432   -5.6085   58.1900 H       1  ZINC000375302598    0.0800
     33 H33        -8.8576   -4.3955   58.8645 H       1  ZINC000375302598    0.0600
     34 H34        -6.5199   -3.9359   59.5517 H       1  ZINC000375302598    0.1100
     35 H35        -6.0349   -3.8454   57.8414 H       1  ZINC000375302598    0.1000
     36 H36        -9.9915    0.7685   58.0194 H       1  ZINC000375302598    0.0700
     37 H37        -8.5570    1.6058   57.3796 H       1  ZINC000375302598    0.1100
     38 H38       -11.4344   -0.1840   56.6174 H       1  ZINC000375302598    0.0800
     39 H39       -11.1875    1.4185   55.8833 H       1  ZINC000375302598    0.0400
     40 H40       -10.9948   -1.2601   54.4317 H       1  ZINC000375302598    0.0700
     41 H41       -12.3386   -0.0988   54.3032 H       1  ZINC000375302598    0.0700
     42 H42       -10.7252    0.1260   52.4090 H       1  ZINC000375302598    0.0700
     43 H43       -10.8030    1.6063   53.3964 H       1  ZINC000375302598    0.0600
     44 H44        -8.0966    2.1738   52.8025 H       1  ZINC000375302598    0.4000
     45 H45        -6.4358    0.7597   49.9159 H       1  ZINC000375302598    0.1000
     46 H46        -7.7715    1.9341   49.8460 H       1  ZINC000375302598    0.1000
     47 H47        -5.3604    3.2104   49.2471 H       1  ZINC000375302598    0.1000
     48 H48        -5.1591    4.3919   50.6488 H       1  ZINC000375302598    0.1000
     49 H49        -5.3624    2.0005   53.7666 H       1  ZINC000375302598    0.1200
     50 H50        -4.0681    2.6820   55.7474 H       1  ZINC000375302598    0.1200
     51 H51        -1.8596    3.7355   55.4725 H       1  ZINC000375302598    0.1200
     52 H52        -0.9451    4.1069   53.2166 H       1  ZINC000375302598    0.1200
     53 H53        -2.2372    3.4213   51.2359 H       1  ZINC000375302598    0.1200
     54 H54        -8.9969    2.0557   55.1005 H       1  ZINC000375302598    0.0400
     55 H55        -7.6349    0.9211   55.2597 H       1  ZINC000375302598    0.0900
@<TRIPOS>BOND
     1     1     2    1
     2     1    31    1
     3     1    32    1
     4     1    33    1
     5     2     3    1
     6     2    34    1
     7     2    35    1
     8     3    30    1
     9     3     4    2
    10     4     5    1
    11     5     6    1
    12     5    29    2
    13     6     7    1
    14     6    36    1
    15     6    37    1
    16     7    28    1
    17     7     8    1
    18     8     9    1
    19     8    38    1
    20     8    39    1
    21     9    10    1
    22     9    40    1
    23     9    41    1
    24    10    11    1
    25    10    42    1
    26    10    43    1
    27    11    12    1
    28    11    13    1
    29    11    28    1
    30    13    14   am
    31    13    44    1
    32    14    15    2
    33    14    16    1
    34    16    17    1
    35    16    45    1
    36    16    46    1
    37    17    18    1
    38    17    20    1
    39    17    19    1
    40    19    20    1
    41    19    47    1
    42    19    48    1
    43    20    21    1
    44    20    22    1
    45    22    27   ar
    46    22    23   ar
    47    23    24   ar
    48    23    49    1
    49    24    25   ar
    50    24    50    1
    51    25    26   ar
    52    25    51    1
    53    26    27   ar
    54    26    52    1
    55    27    53    1
    56    28    54    1
    57    28    55    1
    58    29    30    1
@<TRIPOS>SUBSTRUCTURE
     1 ZINC000375302598        1 TEMP              0 ****  ****    0 ROOT


##########                                Name:    ZINC000410354665
##########                DOCK_Rotatable_Bonds:                   7
##########                         Heavy_Atoms:                  29
##########                    Molecular_Weight:             417.889
##########                DOCK_Rotatable_Bonds:                   7
##########                       Formal_Charge:        -3.72529e-08
##########                     HBond_Acceptors:                   7
##########                        HBond_Donors:                   1
##########                         Heavy_Atoms:                  29
##########                          Grid_Score:          -34.276066
##########                     Grid_vdw_energy:          -33.364498
##########                      Grid_es_energy:           -0.911569
##########           Internal_energy_repulsive:           14.543014

@<TRIPOS>MOLECULE
ZINC000410354665
 53 56 1 0 0
SMALL
USER_CHARGES


@<TRIPOS>ATOM
      1 C1        -10.4960   -0.0906   52.2418 C.3     1  ZINC000410354665    0.0200
      2 O2         -9.0772   -0.0214   52.0868 O.3     1  ZINC000410354665   -0.3000
      3 C3         -8.3689    0.5147   53.1166 C.ar    1  ZINC000410354665    0.0900
      4 C4         -8.6028    0.0907   54.4100 C.ar    1  ZINC000410354665   -0.1100
      5 C5         -7.8727    0.6435   55.4660 C.ar    1  ZINC000410354665   -0.1400
      6 C6         -8.1182    0.1935   56.8502 C.2     1  ZINC000410354665    0.5700
      7 O7         -8.0105    0.9783   57.7727 O.2     1  ZINC000410354665   -0.5300
      8 N8         -8.4619   -1.0871   57.0915 N.am    1  ZINC000410354665   -0.7200
      9 C9         -8.7073   -1.5332   58.4652 C.3     1  ZINC000410354665    0.1700
     10 C10       -10.1920   -1.5920   58.7166 C.ar    1  ZINC000410354665   -0.1000
     11 C11       -10.7927   -0.6459   59.5257 C.ar    1  ZINC000410354665   -0.0900
     12 C12       -12.1549   -0.6980   59.7605 C.ar    1  ZINC000410354665   -0.0300
     13 Cl13      -12.9059    0.4917   60.7776 Cl      1  ZINC000410354665   -0.0400
     14 C14       -12.9216   -1.7002   59.1832 C.ar    1  ZINC000410354665    0.0700
     15 O15       -14.2598   -1.7435   59.4293 O.3     1  ZINC000410354665   -0.2900
     16 C16       -15.0524   -2.5370   58.5393 C.3     1  ZINC000410354665    0.0200
     17 C17       -14.3479   -3.8858   58.3409 C.3     1  ZINC000410354665    0.0200
     18 O18       -13.0514   -3.6371   57.7865 O.3     1  ZINC000410354665   -0.3000
     19 C19       -12.3175   -2.6487   58.3668 C.ar    1  ZINC000410354665    0.0600
     20 C20       -10.9517   -2.5885   58.1330 C.ar    1  ZINC000410354665   -0.0900
     21 C21        -6.9100    1.6221   55.2086 C.ar    1  ZINC000410354665   -0.0800
     22 C22        -6.6819    2.0411   53.9155 C.ar    1  ZINC000410354665   -0.1900
     23 C23        -7.4026    1.4883   52.8660 C.ar    1  ZINC000410354665    0.1400
     24 O24        -7.1742    1.9045   51.5939 O.3     1  ZINC000410354665   -0.2900
     25 C25        -5.9164    2.5301   51.3319 C.3     1  ZINC000410354665    0.0700
     26 C26        -4.7619    1.5077   51.4762 C.3     1  ZINC000410354665   -0.1500
     27 C27        -3.6417    2.1324   50.6077 C.3     1  ZINC000410354665   -0.1200
     28 C28        -4.3900    2.7332   49.3999 C.3     1  ZINC000410354665   -0.1200
     29 C29        -5.8363    2.9862   49.8604 C.3     1  ZINC000410354665   -0.1200
     30 H30       -10.7371   -0.7010   53.1121 H       1  ZINC000410354665    0.0600
     31 H31       -10.8958    0.9138   52.3806 H       1  ZINC000410354665    0.0600
     32 H32       -10.9375   -0.5376   51.3511 H       1  ZINC000410354665    0.1000
     33 H33        -9.3482   -0.6659   54.6051 H       1  ZINC000410354665    0.1500
     34 H34        -8.5466   -1.7134   56.3558 H       1  ZINC000410354665    0.4000
     35 H35        -8.2751   -2.5236   58.6084 H       1  ZINC000410354665    0.0800
     36 H36        -8.2482   -0.8323   59.1624 H       1  ZINC000410354665    0.0900
     37 H37       -10.1974    0.1349   59.9755 H       1  ZINC000410354665    0.1500
     38 H38       -16.0401   -2.6981   58.9713 H       1  ZINC000410354665    0.1300
     39 H39       -15.1487   -2.0281   57.5803 H       1  ZINC000410354665    0.0800
     40 H40       -14.2462   -4.3921   59.3008 H       1  ZINC000410354665    0.0800
     41 H41       -14.9273   -4.5060   57.6572 H       1  ZINC000410354665    0.1300
     42 H42       -10.4804   -3.3234   57.4972 H       1  ZINC000410354665    0.1400
     43 H43        -6.3446    2.0506   56.0229 H       1  ZINC000410354665    0.1300
     44 H44        -5.9374    2.7982   53.7180 H       1  ZINC000410354665    0.1400
     45 H45        -5.7654    3.3763   52.0023 H       1  ZINC000410354665    0.0800
     46 H46        -4.4450    1.4271   52.5160 H       1  ZINC000410354665    0.0700
     47 H47        -5.0569    0.5342   51.0845 H       1  ZINC000410354665    0.0800
     48 H48        -3.1209    2.9137   51.1612 H       1  ZINC000410354665    0.0700
     49 H49        -2.9411    1.3647   50.2791 H       1  ZINC000410354665    0.0700
     50 H50        -3.9236    3.6721   49.1012 H       1  ZINC000410354665    0.0700
     51 H51        -4.3808    2.0297   48.5674 H       1  ZINC000410354665    0.0700
     52 H52        -6.5290    2.4055   49.2512 H       1  ZINC000410354665    0.0800
     53 H53        -6.0718    4.0477   49.7850 H       1  ZINC000410354665    0.0700
@<TRIPOS>BOND
     1     1     2    1
     2     1    30    1
     3     1    31    1
     4     1    32    1
     5     2     3    1
     6     3    23   ar
     7     3     4   ar
     8     4     5   ar
     9     4    33    1
    10     5     6    1
    11     5    21   ar
    12     6     7    2
    13     6     8   am
    14     8     9    1
    15     8    34    1
    16     9    10    1
    17     9    35    1
    18     9    36    1
    19    10    20   ar
    20    10    11   ar
    21    11    12   ar
    22    11    37    1
    23    12    13    1
    24    12    14   ar
    25    14    19   ar
    26    14    15    1
    27    15    16    1
    28    16    17    1
    29    16    38    1
    30    16    39    1
    31    17    18    1
    32    17    40    1
    33    17    41    1
    34    18    19    1
    35    19    20   ar
    36    20    42    1
    37    21    22   ar
    38    21    43    1
    39    22    23   ar
    40    22    44    1
    41    23    24    1
    42    24    25    1
    43    25    29    1
    44    25    26    1
    45    25    45    1
    46    26    27    1
    47    26    46    1
    48    26    47    1
    49    27    28    1
    50    27    48    1
    51    27    49    1
    52    28    29    1
    53    28    50    1
    54    28    51    1
    55    29    52    1
    56    29    53    1
@<TRIPOS>SUBSTRUCTURE
     1 ZINC000410354665        1 TEMP              0 ****  ****    0 ROOT


##########                                Name:    ZINC000482846390
##########                DOCK_Rotatable_Bonds:                   9
##########                         Heavy_Atoms:                  30
##########                    Molecular_Weight:             420.469
##########                DOCK_Rotatable_Bonds:                   9
##########                       Formal_Charge:          -0.0100011
##########                     HBond_Acceptors:                  11
##########                        HBond_Donors:                   2
##########                         Heavy_Atoms:                  30
##########                          Grid_Score:          -34.102673
##########                     Grid_vdw_energy:          -31.850941
##########                      Grid_es_energy:           -2.251732
##########           Internal_energy_repulsive:           20.950924

@<TRIPOS>MOLECULE
ZINC000482846390
 58 60 1 0 0
SMALL
USER_CHARGES


@<TRIPOS>ATOM
      1 C1        -16.5880   -2.1557   57.2934 C.3     1  ZINC000482846390   -0.1000
      2 C2        -15.2117   -2.6618   57.6409 C.2     1  ZINC000482846390    0.0900
      3 C3        -14.1050   -1.9043   57.8206 C.2     1  ZINC000482846390   -0.2700
      4 C4        -13.0429   -2.7604   58.1292 C.2     1  ZINC000482846390    0.0700
      5 C5        -11.6225   -2.3413   58.4083 C.3     1  ZINC000482846390   -0.0500
      6 C6        -10.7797   -2.5214   57.1442 C.3     1  ZINC000482846390    0.1500
      7 H7        -11.3896   -2.9743   56.3624 H       1  ZINC000482846390    0.1000
      8 C8         -9.5874   -3.4297   57.4512 C.3     1  ZINC000482846390   -0.1700
      9 N9        -10.2948   -1.2156   56.6903 N.am    1  ZINC000482846390   -0.6800
     10 C10       -11.0527   -0.4641   55.8673 C.2     1  ZINC000482846390    0.5100
     11 O11       -12.1374   -0.8684   55.5035 O.2     1  ZINC000482846390   -0.5200
     12 C12       -10.5571    0.8672   55.4030 C.2     1  ZINC000482846390    0.5100
     13 O13       -10.6032    1.8249   56.1468 O.2     1  ZINC000482846390   -0.5100
     14 N14       -10.0590    1.0041   54.1582 N.am    1  ZINC000482846390   -0.5900
     15 C15        -9.5624    2.3058   53.6903 C.3     1  ZINC000482846390    0.0500
     16 C16        -8.1168    2.1343   53.2080 C.3     1  ZINC000482846390    0.1000
     17 N17        -8.0598    0.9847   52.2943 N.am    1  ZINC000482846390   -0.6000
     18 C18        -7.5608    1.1214   51.0498 C.2     1  ZINC000482846390    0.5200
     19 O19        -7.5189    0.1648   50.3044 O.2     1  ZINC000482846390   -0.5000
     20 C20        -7.0590    2.4512   50.5878 C.2     1  ZINC000482846390    0.5200
     21 O21        -7.8189    3.2363   50.0596 O.2     1  ZINC000482846390   -0.5000
     22 N22        -5.7627    2.7784   50.7576 N.am    1  ZINC000482846390   -0.6000
     23 C23        -4.8213    1.8406   51.3898 C.3     1  ZINC000482846390    0.0700
     24 C24        -3.5882    1.7121   50.4882 C.3     1  ZINC000482846390    0.0500
     25 O25        -3.0830    3.0165   50.1930 O.3     1  ZINC000482846390   -0.3700
     26 C26        -3.9930    3.8462   49.4668 C.3     1  ZINC000482846390    0.0500
     27 C27        -5.2456    4.0816   50.3109 C.3     1  ZINC000482846390    0.0700
     28 C28        -8.5563   -0.3171   52.7622 C.3     1  ZINC000482846390    0.0900
     29 C29        -9.9969   -0.1468   53.2464 C.3     1  ZINC000482846390    0.0900
     30 N30       -13.4956   -3.9879   58.1345 N.2     1  ZINC000482846390   -0.2800
     31 N31       -14.8634   -3.9512   57.8343 N.pl3   1  ZINC000482846390   -0.4700
     32 H32       -17.1390   -1.9433   58.2095 H       1  ZINC000482846390    0.0800
     33 H33       -16.5014   -1.2443   56.7018 H       1  ZINC000482846390    0.0900
     34 H34       -17.1190   -2.9136   56.7174 H       1  ZINC000482846390    0.0700
     35 H35       -14.0513   -0.8287   57.7398 H       1  ZINC000482846390    0.1500
     36 H36       -11.6054   -1.2940   58.7103 H       1  ZINC000482846390    0.0900
     37 H37       -11.2127   -2.9569   59.2090 H       1  ZINC000482846390    0.1100
     38 H38        -9.9482   -4.4013   57.7888 H       1  ZINC000482846390    0.0700
     39 H39        -8.9870   -3.5580   56.5505 H       1  ZINC000482846390    0.0700
     40 H40        -8.9775   -2.9769   58.2329 H       1  ZINC000482846390    0.0600
     41 H41        -9.4282   -0.8919   56.9821 H       1  ZINC000482846390    0.4200
     42 H42       -10.1832    2.6598   52.8672 H       1  ZINC000482846390    0.0800
     43 H43        -9.5920    3.0246   54.5093 H       1  ZINC000482846390    0.1600
     44 H44        -7.7969    3.0347   52.6833 H       1  ZINC000482846390    0.1100
     45 H45        -7.4647    1.9550   54.0628 H       1  ZINC000482846390    0.0800
     46 H46        -4.5237    2.2218   52.3666 H       1  ZINC000482846390    0.0900
     47 H47        -5.2954    0.8659   51.5044 H       1  ZINC000482846390    0.0900
     48 H48        -2.8210    1.1321   51.0010 H       1  ZINC000482846390    0.1100
     49 H49        -3.8657    1.2108   49.5609 H       1  ZINC000482846390    0.0600
     50 H50        -3.5171    4.8013   49.2448 H       1  ZINC000482846390    0.1100
     51 H51        -4.2720    3.3526   48.5358 H       1  ZINC000482846390    0.0600
     52 H52        -6.0005    4.5926   49.7132 H       1  ZINC000482846390    0.1100
     53 H53        -4.9933    4.6881   51.1808 H       1  ZINC000482846390    0.0800
     54 H54        -8.5267   -1.0357   51.9431 H       1  ZINC000482846390    0.0900
     55 H55        -7.9355   -0.6710   53.5852 H       1  ZINC000482846390    0.0900
     56 H56       -10.3154   -1.0478   53.7709 H       1  ZINC000482846390    0.1100
     57 H57       -10.6508    0.0333   52.3933 H       1  ZINC000482846390    0.0800
     58 H58       -15.4545   -4.7177   57.7707 H       1  ZINC000482846390    0.4400
@<TRIPOS>BOND
     1     1     2    1
     2     1    32    1
     3     1    33    1
     4     1    34    1
     5     2    31    1
     6     2     3    2
     7     3     4    1
     8     3    35    1
     9     4     5    1
    10     4    30    2
    11     5     6    1
    12     5    36    1
    13     5    37    1
    14     6     7    1
    15     6     8    1
    16     6     9    1
    17     8    38    1
    18     8    39    1
    19     8    40    1
    20     9    10   am
    21     9    41    1
    22    10    11    2
    23    10    12    1
    24    12    13    2
    25    12    14   am
    26    14    29    1
    27    14    15    1
    28    15    16    1
    29    15    42    1
    30    15    43    1
    31    16    17    1
    32    16    44    1
    33    16    45    1
    34    17    18   am
    35    17    28    1
    36    18    19    2
    37    18    20    1
    38    20    21    2
    39    20    22   am
    40    22    27    1
    41    22    23    1
    42    23    24    1
    43    23    46    1
    44    23    47    1
    45    24    25    1
    46    24    48    1
    47    24    49    1
    48    25    26    1
    49    26    27    1
    50    26    50    1
    51    26    51    1
    52    27    52    1
    53    27    53    1
    54    28    29    1
    55    28    54    1
    56    28    55    1
    57    29    56    1
    58    29    57    1
    59    30    31    1
    60    31    58    1
@<TRIPOS>SUBSTRUCTURE
     1 ZINC000482846390        1 TEMP              0 ****  ****    0 ROOT


##########                                Name:    ZINC000033150761
##########                DOCK_Rotatable_Bonds:                   7
##########                         Heavy_Atoms:                  29
##########                    Molecular_Weight:             413.407
##########                DOCK_Rotatable_Bonds:                   7
##########                       Formal_Charge:          0.00999993
##########                     HBond_Acceptors:                  10
##########                        HBond_Donors:                   1
##########                         Heavy_Atoms:                  29
##########                          Grid_Score:          -34.096329
##########                     Grid_vdw_energy:          -31.628141
##########                      Grid_es_energy:           -2.468189
##########           Internal_energy_repulsive:            7.485883

@<TRIPOS>MOLECULE
ZINC000033150761
 42 45 1 0 0
SMALL
USER_CHARGES


@<TRIPOS>ATOM
      1 O1         -7.7917    0.5960   56.6175 O.2     1  ZINC000033150761   -0.5000
      2 C2         -6.9926    0.7589   57.5152 C.2     1  ZINC000033150761    0.5200
      3 C3         -6.1797    2.0262   57.5796 C.3     1  ZINC000033150761   -0.1300
      4 C4         -6.9807    3.1775   56.9682 C.3     1  ZINC000033150761   -0.0100
      5 C5         -6.8770    3.1194   55.4658 C.2     1  ZINC000033150761    0.1800
      6 N6         -5.8487    2.6980   54.7728 N.2     1  ZINC000033150761   -0.4400
      7 C7         -6.2072    2.8281   53.4756 C.2     1  ZINC000033150761    0.2200
      8 C8         -5.3788    2.4814   52.2932 C.ar    1  ZINC000033150761    0.1900
      9 C9         -4.0628    2.0637   52.4709 C.ar    1  ZINC000033150761   -0.1300
     10 C10        -3.3021    1.7435   51.3586 C.ar    1  ZINC000033150761   -0.0700
     11 C11        -3.8849    1.8524   50.1048 C.ar    1  ZINC000033150761   -0.1500
     12 C12        -5.1986    2.2741   50.0019 C.ar    1  ZINC000033150761    0.1100
     13 N13        -5.9008    2.5669   51.0768 N.ar    1  ZINC000033150761   -0.4500
     14 N14        -7.4198    3.3160   53.4572 N.2     1  ZINC000033150761   -0.3600
     15 O15        -7.8193    3.4829   54.5903 O.3     1  ZINC000033150761    0.0900
     16 N16        -6.8355   -0.1911   58.4583 N.am    1  ZINC000033150761   -0.6200
     17 C17        -7.5850   -1.3596   58.3988 C.2     1  ZINC000033150761    0.2700
     18 N18        -8.8768   -1.4267   58.4886 N.2     1  ZINC000033150761   -0.5000
     19 C19        -9.4238   -2.6317   58.4104 C.2     1  ZINC000033150761    0.1200
     20 C20       -10.8892   -2.8443   58.4983 C.ar    1  ZINC000033150761    0.0000
     21 C21       -11.5514   -3.5646   57.5060 C.ar    1  ZINC000033150761   -0.0800
     22 C22       -12.9150   -3.7610   57.5911 C.ar    1  ZINC000033150761   -0.1200
     23 C23       -13.6263   -3.2438   58.6604 C.ar    1  ZINC000033150761    0.0700
     24 F24       -14.9608   -3.4387   58.7392 F       1  ZINC000033150761   -0.1300
     25 C25       -12.9720   -2.5261   59.6517 C.ar    1  ZINC000033150761    0.0700
     26 F26       -13.6702   -2.0238   60.6936 F       1  ZINC000033150761   -0.1300
     27 C27       -11.6067   -2.3292   59.5767 C.ar    1  ZINC000033150761   -0.1000
     28 C28        -8.5585   -3.6481   58.2456 C.2     1  ZINC000033150761   -0.2800
     29 S29        -6.9292   -2.9796   58.1823 S.3     1  ZINC000033150761    0.2200
     30 H30        -5.9481    2.2569   58.6196 H       1  ZINC000033150761    0.1200
     31 H31        -5.2528    1.8922   57.0221 H       1  ZINC000033150761    0.1200
     32 H32        -8.0262    3.0901   57.2639 H       1  ZINC000033150761    0.1300
     33 H33        -6.5809    4.1272   57.3236 H       1  ZINC000033150761    0.1200
     34 H34        -3.6407    1.9907   53.4624 H       1  ZINC000033150761    0.1400
     35 H35        -2.2782    1.4169   51.4651 H       1  ZINC000033150761    0.1500
     36 H36        -3.3187    1.6105   49.2174 H       1  ZINC000033150761    0.1400
     37 H37        -5.6558    2.3600   49.0273 H       1  ZINC000033150761    0.1700
     38 H38        -6.1992   -0.0590   59.1784 H       1  ZINC000033150761    0.4300
     39 H39       -10.9982   -3.9683   56.6710 H       1  ZINC000033150761    0.1400
     40 H40       -13.4282   -4.3189   56.8217 H       1  ZINC000033150761    0.1500
     41 H41       -11.0973   -1.7707   60.3481 H       1  ZINC000033150761    0.1600
     42 H42        -8.8178   -4.6931   58.1618 H       1  ZINC000033150761    0.1800
@<TRIPOS>BOND
     1     1     2    2
     2     2     3    1
     3     2    16   am
     4     3     4    1
     5     3    30    1
     6     3    31    1
     7     4     5    1
     8     4    32    1
     9     4    33    1
    10     5    15    1
    11     5     6    2
    12     6     7    1
    13     7     8    1
    14     7    14    2
    15     8    13   ar
    16     8     9   ar
    17     9    10   ar
    18     9    34    1
    19    10    11   ar
    20    10    35    1
    21    11    12   ar
    22    11    36    1
    23    12    13   ar
    24    12    37    1
    25    14    15    1
    26    16    17    1
    27    16    38    1
    28    17    29    1
    29    17    18    2
    30    18    19    1
    31    19    20    1
    32    19    28    2
    33    20    27   ar
    34    20    21   ar
    35    21    22   ar
    36    21    39    1
    37    22    23   ar
    38    22    40    1
    39    23    24    1
    40    23    25   ar
    41    25    26    1
    42    25    27   ar
    43    27    41    1
    44    28    29    1
    45    28    42    1
@<TRIPOS>SUBSTRUCTURE
     1 ZINC000033150761        1 TEMP              0 ****  ****    0 ROOT


##########                                Name:    ZINC000482540246
##########                DOCK_Rotatable_Bonds:                  10
##########                         Heavy_Atoms:                  30
##########                    Molecular_Weight:              409.46
##########                DOCK_Rotatable_Bonds:                  10
##########                       Formal_Charge:         2.83122e-07
##########                     HBond_Acceptors:                   7
##########                        HBond_Donors:                   2
##########                         Heavy_Atoms:                  30
##########                          Grid_Score:          -34.043598
##########                     Grid_vdw_energy:          -30.140215
##########                      Grid_es_energy:           -3.903384
##########           Internal_energy_repulsive:           18.764456

@<TRIPOS>MOLECULE
ZINC000482540246
 54 56 1 0 0
SMALL
USER_CHARGES


@<TRIPOS>ATOM
      1 C1         -7.9968    5.0193   63.4510 C.3     1  ZINC000482540246    0.0400
      2 O2         -9.2272    4.9646   64.1759 O.3     1  ZINC000482540246   -0.3100
      3 C3         -9.5706    3.7688   64.7171 C.ar    1  ZINC000482540246    0.3300
      4 C4         -8.7322    2.6738   64.5536 C.ar    1  ZINC000482540246   -0.1800
      5 C5         -9.0940    1.4594   65.1107 C.ar    1  ZINC000482540246   -0.0100
      6 C6         -8.2117    0.2473   64.9565 C.3     1  ZINC000482540246    0.2000
      7 H7         -8.8207   -0.6548   65.0127 H       1  ZINC000482540246    0.1000
      8 C8         -7.1692    0.2296   66.0762 C.3     1  ZINC000482540246   -0.1600
      9 N9         -7.5338    0.2989   63.6589 N.am    1  ZINC000482540246   -0.7400
     10 C10        -8.2389    0.1282   62.5230 C.2     1  ZINC000482540246    0.7100
     11 O11        -9.4373   -0.0701   62.5753 O.2     1  ZINC000482540246   -0.5800
     12 N12        -7.6155    0.1773   61.3290 N.am    1  ZINC000482540246   -0.7400
     13 C13        -8.3822   -0.0066   60.0943 C.3     1  ZINC000482540246    0.2100
     14 H14        -8.9916   -0.9066   60.1755 H       1  ZINC000482540246    0.1200
     15 C15        -7.4203   -0.1467   58.9128 C.3     1  ZINC000482540246    0.0500
     16 O16        -8.0789   -0.8228   57.8399 O.3     1  ZINC000482540246   -0.3000
     17 C17        -8.2065   -2.1722   57.9464 C.ar    1  ZINC000482540246    0.1000
     18 C18        -7.1065   -2.9502   58.2721 C.ar    1  ZINC000482540246   -0.1800
     19 C19        -7.2385   -4.3218   58.3805 C.ar    1  ZINC000482540246   -0.0900
     20 C20        -8.4661   -4.9191   58.1647 C.ar    1  ZINC000482540246   -0.1300
     21 C21        -9.5663   -4.1467   57.8392 C.ar    1  ZINC000482540246   -0.1200
     22 C22        -9.4412   -2.7734   57.7350 C.ar    1  ZINC000482540246    0.0700
     23 F23       -10.5156   -2.0185   57.4171 F       1  ZINC000482540246   -0.1300
     24 C24        -9.2759    1.1870   59.8755 C.ar    1  ZINC000482540246   -0.1000
     25 C25        -8.8226    2.4558   60.1851 C.ar    1  ZINC000482540246   -0.0800
     26 C26        -9.6424    3.5506   59.9844 C.ar    1  ZINC000482540246   -0.1200
     27 C27       -10.9152    3.3768   59.4738 C.ar    1  ZINC000482540246   -0.1200
     28 C28       -11.3680    2.1082   59.1635 C.ar    1  ZINC000482540246   -0.1200
     29 C29       -10.5467    1.0137   59.3601 C.ar    1  ZINC000482540246   -0.1000
     30 C30       -10.2874    1.3836   65.8149 C.ar    1  ZINC000482540246   -0.2100
     31 C31       -11.0723    2.5132   65.9378 C.ar    1  ZINC000482540246    0.1500
     32 N32       -10.6980    3.6583   65.4000 N.ar    1  ZINC000482540246   -0.5400
     33 H33        -7.8429    6.0297   63.0722 H       1  ZINC000482540246    0.1000
     34 H34        -7.1732    4.7498   64.1124 H       1  ZINC000482540246    0.0600
     35 H35        -8.0358    4.3201   62.6158 H       1  ZINC000482540246    0.0600
     36 H36        -7.8103    2.7684   63.9989 H       1  ZINC000482540246    0.1500
     37 H37        -6.5603    1.1318   66.0200 H       1  ZINC000482540246    0.0600
     38 H38        -7.6737    0.1913   67.0417 H       1  ZINC000482540246    0.0700
     39 H39        -6.5311   -0.6470   65.9647 H       1  ZINC000482540246    0.0700
     40 H40        -6.5775    0.4559   63.6171 H       1  ZINC000482540246    0.4000
     41 H41        -6.6592    0.3343   61.2873 H       1  ZINC000482540246    0.4000
     42 H42        -7.1064    0.8428   58.5805 H       1  ZINC000482540246    0.0800
     43 H43        -6.5465   -0.7204   59.2217 H       1  ZINC000482540246    0.0800
     44 H44        -6.1465   -2.4848   58.4406 H       1  ZINC000482540246    0.1400
     45 H45        -6.3811   -4.9277   58.6338 H       1  ZINC000482540246    0.1300
     46 H46        -8.5664   -5.9910   58.2500 H       1  ZINC000482540246    0.1400
     47 H47       -10.5243   -4.6159   57.6706 H       1  ZINC000482540246    0.1400
     48 H48        -7.8282    2.5916   60.5840 H       1  ZINC000482540246    0.1200
     49 H49        -9.2886    4.5418   60.2270 H       1  ZINC000482540246    0.1200
     50 H50       -11.5558    4.2321   59.3177 H       1  ZINC000482540246    0.1200
     51 H51       -12.3625    1.9722   58.7649 H       1  ZINC000482540246    0.1200
     52 H52       -10.9005    0.0225   59.1176 H       1  ZINC000482540246    0.1200
     53 H53       -10.5992    0.4511   66.2617 H       1  ZINC000482540246    0.1400
     54 H54       -12.0019    2.4596   66.4848 H       1  ZINC000482540246    0.1600
@<TRIPOS>BOND
     1     1     2    1
     2     1    33    1
     3     1    34    1
     4     1    35    1
     5     2     3    1
     6     3    32   ar
     7     3     4   ar
     8     4     5   ar
     9     4    36    1
    10     5     6    1
    11     5    30   ar
    12     6     7    1
    13     6     8    1
    14     6     9    1
    15     8    37    1
    16     8    38    1
    17     8    39    1
    18     9    10   am
    19     9    40    1
    20    10    11    2
    21    10    12   am
    22    12    13    1
    23    12    41    1
    24    13    14    1
    25    13    15    1
    26    13    24    1
    27    15    16    1
    28    15    42    1
    29    15    43    1
    30    16    17    1
    31    17    22   ar
    32    17    18   ar
    33    18    19   ar
    34    18    44    1
    35    19    20   ar
    36    19    45    1
    37    20    21   ar
    38    20    46    1
    39    21    22   ar
    40    21    47    1
    41    22    23    1
    42    24    29   ar
    43    24    25   ar
    44    25    26   ar
    45    25    48    1
    46    26    27   ar
    47    26    49    1
    48    27    28   ar
    49    27    50    1
    50    28    29   ar
    51    28    51    1
    52    29    52    1
    53    30    31   ar
    54    30    53    1
    55    31    32   ar
    56    31    54    1
@<TRIPOS>SUBSTRUCTURE
     1 ZINC000482540246        1 TEMP              0 ****  ****    0 ROOT


##########                                Name:    ZINC000770850676
##########                DOCK_Rotatable_Bonds:                  13
##########                         Heavy_Atoms:                  30
##########                    Molecular_Weight:             412.486
##########                DOCK_Rotatable_Bonds:                  13
##########                       Formal_Charge:          -0.0299994
##########                     HBond_Acceptors:                   7
##########                        HBond_Donors:                   3
##########                         Heavy_Atoms:                  30
##########                          Grid_Score:          -34.037636
##########                     Grid_vdw_energy:          -32.099777
##########                      Grid_es_energy:           -1.937859
##########           Internal_energy_repulsive:           17.740622

@<TRIPOS>MOLECULE
ZINC000770850676
 58 60 1 0 0
SMALL
USER_CHARGES


@<TRIPOS>ATOM
      1 O1        -13.9881   -1.4419   60.4479 O.2     1  ZINC000770850676   -0.5300
      2 C2        -13.7675   -0.6073   59.5960 C.2     1  ZINC000770850676    0.5100
      3 N3        -13.1883    0.5622   59.9326 N.am    1  ZINC000770850676   -0.7000
      4 C4        -12.8307    0.8277   61.3282 C.3     1  ZINC000770850676    0.1600
      5 H5        -12.5141   -0.1000   61.8049 H       1  ZINC000770850676    0.1000
      6 C6        -14.0454    1.3922   62.0674 C.3     1  ZINC000770850676    0.0600
      7 O7        -13.9435    1.0812   63.4584 O.3     1  ZINC000770850676   -0.5700
      8 C8        -11.6867    1.8425   61.3774 C.3     1  ZINC000770850676   -0.1500
      9 C9        -10.3750    1.1512   60.9999 C.3     1  ZINC000770850676    0.1500
     10 H10       -10.5905    0.2612   60.4087 H       1  ZINC000770850676    0.1100
     11 O11        -9.5673    2.0475   60.2343 O.3     1  ZINC000770850676   -0.5400
     12 C12        -9.6370    0.7555   62.2528 C.ar    1  ZINC000770850676   -0.1200
     13 C13       -10.3409    0.4566   63.4045 C.ar    1  ZINC000770850676   -0.1100
     14 C14        -9.6640    0.0937   64.5537 C.ar    1  ZINC000770850676   -0.1200
     15 C15        -8.2832    0.0291   64.5513 C.ar    1  ZINC000770850676   -0.1200
     16 C16        -7.5793    0.3270   63.3995 C.ar    1  ZINC000770850676   -0.1200
     17 C17        -8.2564    0.6858   62.2490 C.ar    1  ZINC000770850676   -0.1100
     18 C18       -14.1354   -0.8803   58.1603 C.3     1  ZINC000770850676    0.1400
     19 H19       -13.4651   -0.3349   57.4959 H       1  ZINC000770850676    0.1000
     20 C20       -15.5949   -0.4506   57.9018 C.3     1  ZINC000770850676   -0.1200
     21 C21       -16.1211   -1.5604   56.9536 C.3     1  ZINC000770850676   -0.1300
     22 C22       -15.3863   -2.8100   57.4996 C.3     1  ZINC000770850676    0.1000
     23 N23       -14.0465   -2.3222   57.8870 N.am    1  ZINC000770850676   -0.5900
     24 C24       -12.9319   -3.0747   57.9760 C.2     1  ZINC000770850676    0.6700
     25 O25       -12.9793   -4.2627   57.7254 O.2     1  ZINC000770850676   -0.5600
     26 O26       -11.7660   -2.5099   58.3425 O.3     1  ZINC000770850676   -0.3600
     27 C27       -10.7639   -2.3350   57.3064 C.3     1  ZINC000770850676    0.1300
     28 C28        -9.4380   -2.8569   57.7968 C.ar    1  ZINC000770850676   -0.1000
     29 C29        -8.3809   -1.9869   57.9887 C.ar    1  ZINC000770850676   -0.0900
     30 C30        -7.1647   -2.4657   58.4386 C.ar    1  ZINC000770850676   -0.1200
     31 C31        -7.0055   -3.8144   58.6969 C.ar    1  ZINC000770850676   -0.1100
     32 C32        -8.0628   -4.6842   58.5058 C.ar    1  ZINC000770850676   -0.1200
     33 C33        -9.2804   -4.2048   58.0602 C.ar    1  ZINC000770850676   -0.0900
     34 H34       -13.0083    1.2282   59.2507 H       1  ZINC000770850676    0.4000
     35 H35       -14.0787    2.4741   61.9384 H       1  ZINC000770850676    0.0500
     36 H36       -14.9554    0.9498   61.6619 H       1  ZINC000770850676    0.0500
     37 H37       -13.0706    1.2537   63.8371 H       1  ZINC000770850676    0.3800
     38 H38       -11.8872    2.6504   60.6737 H       1  ZINC000770850676    0.0800
     39 H39       -11.6057    2.2501   62.3850 H       1  ZINC000770850676    0.0900
     40 H40        -9.3947    2.8926   60.6716 H       1  ZINC000770850676    0.3700
     41 H41       -11.4198    0.5071   63.4063 H       1  ZINC000770850676    0.1200
     42 H42       -10.2139   -0.1391   65.4537 H       1  ZINC000770850676    0.1200
     43 H43        -7.7542   -0.2537   65.4494 H       1  ZINC000770850676    0.1200
     44 H44        -6.5005    0.2769   63.3977 H       1  ZINC000770850676    0.1200
     45 H45        -7.7065    0.9186   61.3491 H       1  ZINC000770850676    0.1200
     46 H46       -16.1633   -0.4364   58.8317 H       1  ZINC000770850676    0.0800
     47 H47       -15.6294    0.5229   57.4125 H       1  ZINC000770850676    0.1000
     48 H48       -17.2016   -1.6718   57.0443 H       1  ZINC000770850676    0.0900
     49 H49       -15.8359   -1.3595   55.9209 H       1  ZINC000770850676    0.0800
     50 H50       -15.9112   -3.2099   58.3672 H       1  ZINC000770850676    0.0700
     51 H51       -15.3017   -3.5700   56.7228 H       1  ZINC000770850676    0.0900
     52 H52       -11.0636   -2.8853   56.4145 H       1  ZINC000770850676    0.0800
     53 H53       -10.6710   -1.2760   57.0657 H       1  ZINC000770850676    0.0800
     54 H54        -8.5053   -0.9333   57.7869 H       1  ZINC000770850676    0.1200
     55 H55        -6.3386   -1.7861   58.5879 H       1  ZINC000770850676    0.1300
     56 H56        -6.0550   -4.1885   59.0477 H       1  ZINC000770850676    0.1300
     57 H57        -7.9383   -5.7379   58.7073 H       1  ZINC000770850676    0.1300
     58 H58       -10.1063   -4.8843   57.9109 H       1  ZINC000770850676    0.1200
@<TRIPOS>BOND
     1     1     2    2
     2     2     3   am
     3     2    18    1
     4     3     4    1
     5     3    34    1
     6     4     5    1
     7     4     6    1
     8     4     8    1
     9     6     7    1
    10     6    35    1
    11     6    36    1
    12     7    37    1
    13     8     9    1
    14     8    38    1
    15     8    39    1
    16     9    10    1
    17     9    11    1
    18     9    12    1
    19    11    40    1
    20    12    17   ar
    21    12    13   ar
    22    13    14   ar
    23    13    41    1
    24    14    15   ar
    25    14    42    1
    26    15    16   ar
    27    15    43    1
    28    16    17   ar
    29    16    44    1
    30    17    45    1
    31    18    19    1
    32    18    23    1
    33    18    20    1
    34    20    21    1
    35    20    46    1
    36    20    47    1
    37    21    22    1
    38    21    48    1
    39    21    49    1
    40    22    23    1
    41    22    50    1
    42    22    51    1
    43    23    24   am
    44    24    25    2
    45    24    26    1
    46    26    27    1
    47    27    28    1
    48    27    52    1
    49    27    53    1
    50    28    33   ar
    51    28    29   ar
    52    29    30   ar
    53    29    54    1
    54    30    31   ar
    55    30    55    1
    56    31    32   ar
    57    31    56    1
    58    32    33   ar
    59    32    57    1
    60    33    58    1
@<TRIPOS>SUBSTRUCTURE
     1 ZINC000770850676        1 TEMP              0 ****  ****    0 ROOT


##########                                Name:    ZINC000533037883
##########                DOCK_Rotatable_Bonds:                   7
##########                         Heavy_Atoms:                  27
##########                    Molecular_Weight:             368.479
##########                DOCK_Rotatable_Bonds:                   7
##########                       Formal_Charge:          0.00999947
##########                     HBond_Acceptors:                   6
##########                        HBond_Donors:                   1
##########                         Heavy_Atoms:                  27
##########                          Grid_Score:          -34.002804
##########                     Grid_vdw_energy:          -33.165348
##########                      Grid_es_energy:           -0.837456
##########           Internal_energy_repulsive:           15.009081

@<TRIPOS>MOLECULE
ZINC000533037883
 55 58 1 0 0
SMALL
USER_CHARGES


@<TRIPOS>ATOM
      1 O1         -4.4916    3.8846   51.8094 O.2     1  ZINC000533037883   -0.5900
      2 C2         -4.2374    3.7827   50.6247 C.2     1  ZINC000533037883    0.7100
      3 N3         -5.1839    4.0599   49.7061 N.am    1  ZINC000533037883   -0.7500
      4 C4         -6.5208    4.4783   50.1350 C.3     1  ZINC000533037883    0.1400
      5 C5         -7.5603    3.4922   49.5985 C.3     1  ZINC000533037883   -0.0500
      6 C6         -7.8303    2.4330   50.6360 C.2     1  ZINC000533037883   -0.2300
      7 C7         -8.3381    2.6413   51.8728 C.2     1  ZINC000533037883    0.0600
      8 N8         -8.4269    1.4408   52.4886 N.pl3   1  ZINC000533037883   -0.3200
      9 C9         -8.9045    1.2127   53.7867 C.ar    1  ZINC000533037883    0.1600
     10 C10        -9.3951    2.2687   54.5430 C.ar    1  ZINC000533037883   -0.1400
     11 C11        -9.8649    2.0409   55.8216 C.ar    1  ZINC000533037883   -0.0900
     12 C12        -9.8467    0.7627   56.3490 C.ar    1  ZINC000533037883   -0.1300
     13 C13        -9.3588   -0.2910   55.5982 C.ar    1  ZINC000533037883   -0.0900
     14 C14        -8.8933   -0.0704   54.3167 C.ar    1  ZINC000533037883   -0.1200
     15 N15        -7.9579    0.4652   51.5994 N.2     1  ZINC000533037883   -0.2900
     16 C16        -7.6056    1.0599   50.4881 C.2     1  ZINC000533037883    0.0700
     17 N17        -3.0075    3.3978   50.2301 N.am    1  ZINC000533037883   -0.6300
     18 C18        -1.9654    3.0922   51.2196 C.3     1  ZINC000533037883    0.1100
     19 C19        -1.4081    1.6943   50.9329 C.3     1  ZINC000533037883   -0.1400
     20 C20        -0.9338    1.6269   49.4793 C.3     1  ZINC000533037883   -0.1100
     21 C21        -2.1179    1.8762   48.5425 C.3     1  ZINC000533037883   -0.0900
     22 H22        -2.8917    1.1313   48.7279 H       1  ZINC000533037883    0.0800
     23 C23        -1.6496    1.7754   47.0895 C.3     1  ZINC000533037883   -0.1200
     24 H24        -0.8058    2.4413   46.9086 H       1  ZINC000533037883    0.0900
     25 C25        -1.2849    0.3100   46.7268 C.3     1  ZINC000533037883   -0.1500
     26 C26        -1.5610    0.3070   45.2021 C.3     1  ZINC000533037883    0.0500
     27 O27        -2.7115    1.1490   45.0276 O.3     1  ZINC000533037883   -0.3900
     28 C28        -2.8086    2.0802   46.1162 C.3     1  ZINC000533037883    0.0500
     29 C29        -2.6851    3.2703   48.8023 C.3     1  ZINC000533037883    0.1300
     30 H30        -4.9799    3.9824   48.7609 H       1  ZINC000533037883    0.4000
     31 H31        -6.5642    4.4953   51.2240 H       1  ZINC000533037883    0.0700
     32 H32        -6.7313    5.4751   49.7473 H       1  ZINC000533037883    0.0700
     33 H33        -8.4844    4.0248   49.3740 H       1  ZINC000533037883    0.0800
     34 H34        -7.1814    3.0232   48.6905 H       1  ZINC000533037883    0.0800
     35 H35        -8.6211    3.5952   52.2927 H       1  ZINC000533037883    0.1800
     36 H36        -9.4089    3.2673   54.1320 H       1  ZINC000533037883    0.1300
     37 H37       -10.2467    2.8620   56.4104 H       1  ZINC000533037883    0.1300
     38 H38       -10.2140    0.5872   57.3493 H       1  ZINC000533037883    0.1300
     39 H39        -9.3457   -1.2882   56.0127 H       1  ZINC000533037883    0.1300
     40 H40        -8.5126   -0.8939   53.7307 H       1  ZINC000533037883    0.1400
     41 H41        -7.2047    0.5750   49.6103 H       1  ZINC000533037883    0.1900
     42 H42        -1.1641    3.8273   51.1455 H       1  ZINC000533037883    0.0700
     43 H43        -2.3944    3.1160   52.2214 H       1  ZINC000533037883    0.0800
     44 H44        -0.5689    1.4936   51.5989 H       1  ZINC000533037883    0.0800
     45 H45        -2.1884    0.9510   51.0957 H       1  ZINC000533037883    0.0700
     46 H46        -0.1710    2.3871   49.3106 H       1  ZINC000533037883    0.0700
     47 H47        -0.5141    0.6410   49.2797 H       1  ZINC000533037883    0.0700
     48 H48        -0.2356    0.1029   46.9364 H       1  ZINC000533037883    0.0800
     49 H49        -1.9338   -0.3961   47.2449 H       1  ZINC000533037883    0.0800
     50 H50        -0.7071    0.7164   44.6622 H       1  ZINC000533037883    0.0600
     51 H51        -1.7770   -0.7048   44.8587 H       1  ZINC000533037883    0.0900
     52 H52        -3.7619    1.9518   46.6289 H       1  ZINC000533037883    0.0700
     53 H53        -2.7244    3.0995   45.7395 H       1  ZINC000533037883    0.0700
     54 H54        -3.5878    3.4140   48.2083 H       1  ZINC000533037883    0.1000
     55 H55        -1.9440    4.0225   48.5324 H       1  ZINC000533037883    0.0700
@<TRIPOS>BOND
     1     1     2    2
     2     2     3   am
     3     2    17   am
     4     3     4    1
     5     3    30    1
     6     4     5    1
     7     4    31    1
     8     4    32    1
     9     5     6    1
    10     5    33    1
    11     5    34    1
    12     6    16    1
    13     6     7    2
    14     7     8    1
    15     7    35    1
    16     8     9    1
    17     8    15    1
    18     9    14   ar
    19     9    10   ar
    20    10    11   ar
    21    10    36    1
    22    11    12   ar
    23    11    37    1
    24    12    13   ar
    25    12    38    1
    26    13    14   ar
    27    13    39    1
    28    14    40    1
    29    15    16    2
    30    16    41    1
    31    17    29    1
    32    17    18    1
    33    18    19    1
    34    18    42    1
    35    18    43    1
    36    19    20    1
    37    19    44    1
    38    19    45    1
    39    20    21    1
    40    20    46    1
    41    20    47    1
    42    21    22    1
    43    21    23    1
    44    21    29    1
    45    23    24    1
    46    23    28    1
    47    23    25    1
    48    25    26    1
    49    25    48    1
    50    25    49    1
    51    26    27    1
    52    26    50    1
    53    26    51    1
    54    27    28    1
    55    28    52    1
    56    28    53    1
    57    29    54    1
    58    29    55    1
@<TRIPOS>SUBSTRUCTURE
     1 ZINC000533037883        1 TEMP              0 ****  ****    0 ROOT


##########                                Name:    ZINC000746432885
##########                DOCK_Rotatable_Bonds:                  11
##########                         Heavy_Atoms:                  31
##########                    Molecular_Weight:              419.44
##########                DOCK_Rotatable_Bonds:                  11
##########                       Formal_Charge:           0.0199995
##########                     HBond_Acceptors:                   9
##########                        HBond_Donors:                   2
##########                         Heavy_Atoms:                  31
##########                          Grid_Score:          -33.972153
##########                     Grid_vdw_energy:          -31.964350
##########                      Grid_es_energy:           -2.007805
##########           Internal_energy_repulsive:           16.813374

@<TRIPOS>MOLECULE
ZINC000746432885
 52 54 1 0 0
SMALL
USER_CHARGES


@<TRIPOS>ATOM
      1 C1         -9.6103    3.2208   62.1108 C.3     1  ZINC000746432885    0.0300
      2 O2        -10.1876    2.3834   61.1070 O.3     1  ZINC000746432885   -0.3200
      3 C3         -9.4159    2.0939   60.0264 C.ar    1  ZINC000746432885    0.1300
      4 C4         -8.1232    2.5903   59.9427 C.ar    1  ZINC000746432885   -0.2000
      5 C5         -7.3409    2.2948   58.8433 C.ar    1  ZINC000746432885   -0.0800
      6 C6         -7.8453    1.5052   57.8265 C.ar    1  ZINC000746432885   -0.1400
      7 C7         -9.1334    1.0092   57.9075 C.ar    1  ZINC000746432885   -0.0600
      8 C8         -9.6800    0.1486   56.7977 C.3     1  ZINC000746432885    0.2300
      9 N9         -8.8281    0.2800   55.6130 N.am    1  ZINC000746432885   -0.6900
     10 C10        -9.3723    0.2189   54.3816 C.2     1  ZINC000746432885    0.5200
     11 O11       -10.5683    0.0564   54.2540 O.2     1  ZINC000746432885   -0.5100
     12 C12        -8.5038    0.3511   53.1741 C.2     1  ZINC000746432885    0.5100
     13 O13        -8.7159   -0.3356   52.1956 O.2     1  ZINC000746432885   -0.5100
     14 N14        -7.4844    1.2327   53.1704 N.am    1  ZINC000746432885   -0.6100
     15 C15        -6.6683    1.3583   52.0339 C.2     1  ZINC000746432885    0.0000
     16 C16        -5.3136    1.4607   52.0281 C.2     1  ZINC000746432885    0.0400
     17 N17        -4.9158    1.5629   50.7397 N.pl3   1  ZINC000746432885   -0.3800
     18 C18        -3.5332    1.6928   50.2734 C.3     1  ZINC000746432885    0.2500
     19 C19        -3.5237    2.2798   48.9235 C.1     1  ZINC000746432885    0.1900
     20 N20        -3.5162    2.7328   47.8818 N.1     1  ZINC000746432885   -0.3900
     21 N21        -6.0575    1.5223   49.9295 N.2     1  ZINC000746432885   -0.2800
     22 C22        -7.1062    1.3942   50.7011 C.2     1  ZINC000746432885    0.0700
     23 C23        -9.7024   -1.2910   57.2430 C.ar    1  ZINC000746432885   -0.0500
     24 C24       -10.9024   -1.8936   57.5723 C.ar    1  ZINC000746432885   -0.1500
     25 C25       -10.9263   -3.2143   57.9807 C.ar    1  ZINC000746432885   -0.0700
     26 C26        -9.7505   -3.9351   58.0609 C.ar    1  ZINC000746432885   -0.2000
     27 C27        -8.5452   -3.3327   57.7312 C.ar    1  ZINC000746432885    0.1300
     28 O28        -7.3871   -4.0397   57.8093 O.3     1  ZINC000746432885   -0.3200
     29 C29        -6.4154   -3.5904   58.7558 C.3     1  ZINC000746432885    0.0300
     30 C30        -8.5245   -2.0090   57.3166 C.ar    1  ZINC000746432885   -0.1300
     31 C31        -9.9176    1.2969   59.0077 C.ar    1  ZINC000746432885   -0.1300
     32 H32        -9.3464    4.1835   61.6732 H       1  ZINC000746432885    0.0600
     33 H33       -10.3300    3.3725   62.9153 H       1  ZINC000746432885    0.1000
     34 H34        -8.7144    2.7450   62.5097 H       1  ZINC000746432885    0.0600
     35 H35        -7.7289    3.2077   60.7363 H       1  ZINC000746432885    0.1300
     36 H36        -6.3343    2.6809   58.7777 H       1  ZINC000746432885    0.1300
     37 H37        -7.2324    1.2758   56.9674 H       1  ZINC000746432885    0.1200
     38 H38       -10.6929    0.4694   56.5543 H       1  ZINC000746432885    0.1200
     39 H39        -7.8724    0.4110   55.7150 H       1  ZINC000746432885    0.4200
     40 H40        -7.3141    1.7805   53.9527 H       1  ZINC000746432885    0.4200
     41 H41        -4.6706    1.4608   52.8959 H       1  ZINC000746432885    0.1900
     42 H42        -2.9792    2.3389   50.9544 H       1  ZINC000746432885    0.1300
     43 H43        -3.0653    0.7087   50.2449 H       1  ZINC000746432885    0.1500
     44 H44        -8.1324    1.3335   50.3699 H       1  ZINC000746432885    0.2100
     45 H45       -11.8227   -1.3317   57.5106 H       1  ZINC000746432885    0.1200
     46 H46       -11.8650   -3.6828   58.2377 H       1  ZINC000746432885    0.1300
     47 H47        -9.7697   -4.9666   58.3805 H       1  ZINC000746432885    0.1300
     48 H48        -5.5416   -4.2408   58.7160 H       1  ZINC000746432885    0.1000
     49 H49        -6.1195   -2.5693   58.5159 H       1  ZINC000746432885    0.0600
     50 H50        -6.8439   -3.6187   59.7577 H       1  ZINC000746432885    0.0600
     51 H51        -7.5874   -1.5378   57.0593 H       1  ZINC000746432885    0.1400
     52 H52       -10.9237    0.9093   59.0706 H       1  ZINC000746432885    0.1300
@<TRIPOS>BOND
     1     1     2    1
     2     1    32    1
     3     1    33    1
     4     1    34    1
     5     2     3    1
     6     3    31   ar
     7     3     4   ar
     8     4     5   ar
     9     4    35    1
    10     5     6   ar
    11     5    36    1
    12     6     7   ar
    13     6    37    1
    14     7     8    1
    15     7    31   ar
    16     8     9    1
    17     8    23    1
    18     8    38    1
    19     9    10   am
    20     9    39    1
    21    10    11    2
    22    10    12    1
    23    12    13    2
    24    12    14   am
    25    14    15    1
    26    14    40    1
    27    15    22    1
    28    15    16    2
    29    16    17    1
    30    16    41    1
    31    17    18    1
    32    17    21    1
    33    18    19    1
    34    18    42    1
    35    18    43    1
    36    19    20    3
    37    21    22    2
    38    22    44    1
    39    23    30   ar
    40    23    24   ar
    41    24    25   ar
    42    24    45    1
    43    25    26   ar
    44    25    46    1
    45    26    27   ar
    46    26    47    1
    47    27    28    1
    48    27    30   ar
    49    28    29    1
    50    29    48    1
    51    29    49    1
    52    29    50    1
    53    30    51    1
    54    31    52    1
@<TRIPOS>SUBSTRUCTURE
     1 ZINC000746432885        1 TEMP              0 ****  ****    0 ROOT


##########                                Name:    ZINC000621594459
##########                DOCK_Rotatable_Bonds:                  10
##########                         Heavy_Atoms:                  25
##########                    Molecular_Weight:             389.497
##########                DOCK_Rotatable_Bonds:                  10
##########                       Formal_Charge:         -7.7486e-07
##########                     HBond_Acceptors:                  10
##########                        HBond_Donors:                   3
##########                         Heavy_Atoms:                  25
##########                          Grid_Score:          -33.969215
##########                     Grid_vdw_energy:          -33.174274
##########                      Grid_es_energy:           -0.794941
##########           Internal_energy_repulsive:           11.699505

@<TRIPOS>MOLECULE
ZINC000621594459
 48 49 1 0 0
SMALL
USER_CHARGES


@<TRIPOS>ATOM
      1 C1         -8.3650    2.2609   54.5443 C.3     1  ZINC000621594459   -0.1600
      2 C2         -7.4838    2.7855   53.4088 C.3     1  ZINC000621594459    0.1300
      3 C3         -6.3597    3.6447   53.9909 C.3     1  ZINC000621594459   -0.1800
      4 N4         -6.9059    1.6554   52.6773 N.am    1  ZINC000621594459   -1.1100
      5 S5         -7.7104    1.0087   51.3824 S.o2    1  ZINC000621594459    2.6200
      6 O6         -6.8250    0.0178   50.8790 O.2     1  ZINC000621594459   -0.9500
      7 O7         -8.9851    0.6562   51.9023 O.2     1  ZINC000621594459   -0.9400
      8 C8         -7.8596    2.3843   50.2094 C.3     1  ZINC000621594459   -0.6600
      9 C9         -6.5638    3.1979   50.2099 C.3     1  ZINC000621594459    0.1300
     10 N10        -5.4606    2.3594   49.7344 N.am    1  ZINC000621594459   -0.7200
     11 C11        -4.1887    2.7897   49.8505 C.2     1  ZINC000621594459    0.5600
     12 O12        -3.9568    3.8728   50.3511 O.2     1  ZINC000621594459   -0.5200
     13 C13        -3.0754    1.9443   49.3690 C.ar    1  ZINC000621594459   -0.1500
     14 C14        -2.1523    1.4189   50.2742 C.ar    1  ZINC000621594459   -0.0300
     15 C15        -1.1158    0.6302   49.8183 C.ar    1  ZINC000621594459   -0.1400
     16 C16        -0.9904    0.3605   48.4672 C.ar    1  ZINC000621594459    0.0100
     17 C17        -1.9021    0.8789   47.5645 C.ar    1  ZINC000621594459   -0.6800
     18 S18        -1.7328    0.5298   45.8457 S.o2    1  ZINC000621594459    2.7000
     19 O19        -1.9094   -0.8729   45.7018 O.2     1  ZINC000621594459   -0.9400
     20 O20        -2.5287    1.4876   45.1614 O.2     1  ZINC000621594459   -0.9500
     21 N21        -0.1607    0.8479   45.4334 N.am    1  ZINC000621594459   -1.0900
     22 C22         0.3851    2.1955   45.6124 C.3     1  ZINC000621594459    0.0800
     23 C23         1.7512    2.4927   44.9907 C.3     1  ZINC000621594459   -0.1800
     24 C24         0.4841    3.0878   44.3734 C.3     1  ZINC000621594459   -0.1900
     25 C25        -2.9463    1.6636   48.0077 C.ar    1  ZINC000621594459    0.0400
     26 H26        -8.7950    3.1017   55.0886 H       1  ZINC000621594459    0.0700
     27 H27        -9.1658    1.6488   54.1296 H       1  ZINC000621594459    0.0700
     28 H28        -7.7619    1.6586   55.2237 H       1  ZINC000621594459    0.0600
     29 H29        -8.0870    3.3878   52.7294 H       1  ZINC000621594459    0.0900
     30 H30        -5.7566    3.0424   54.6703 H       1  ZINC000621594459    0.0700
     31 H31        -5.7318    4.0183   53.1820 H       1  ZINC000621594459    0.0600
     32 H32        -6.7897    4.4855   54.5352 H       1  ZINC000621594459    0.0700
     33 H33        -6.0519    1.2858   52.9516 H       1  ZINC000621594459    0.4200
     34 H34        -8.0411    1.9909   49.2093 H       1  ZINC000621594459    0.1400
     35 H35        -8.6907    3.0248   50.5044 H       1  ZINC000621594459    0.1400
     36 H36        -6.6754    4.0593   49.5515 H       1  ZINC000621594459    0.0900
     37 H37        -6.3499    3.5399   51.2226 H       1  ZINC000621594459    0.0900
     38 H38        -5.6455    1.4946   49.3361 H       1  ZINC000621594459    0.4000
     39 H39        -2.2487    1.6292   51.3291 H       1  ZINC000621594459    0.1300
     40 H40        -0.4008    0.2229   50.5177 H       1  ZINC000621594459    0.1400
     41 H41        -0.1772   -0.2570   48.1156 H       1  ZINC000621594459    0.1500
     42 H42         0.3987    0.1418   45.0735 H       1  ZINC000621594459    0.4200
     43 H43         0.1483    2.6765   46.5614 H       1  ZINC000621594459    0.1400
     44 H44         2.4136    3.1692   45.5309 H       1  ZINC000621594459    0.1100
     45 H45         2.2438    1.6855   44.4486 H       1  ZINC000621594459    0.1000
     46 H46         0.1430    2.6721   43.4252 H       1  ZINC000621594459    0.1000
     47 H47         0.3127    4.1559   44.5074 H       1  ZINC000621594459    0.1000
     48 H48        -3.6573    2.0673   47.3021 H       1  ZINC000621594459    0.1600
@<TRIPOS>BOND
     1     1     2    1
     2     1    26    1
     3     1    27    1
     4     1    28    1
     5     2     3    1
     6     2     4    1
     7     2    29    1
     8     3    30    1
     9     3    31    1
    10     3    32    1
    11     4     5   am
    12     4    33    1
    13     5     6    2
    14     5     7    2
    15     5     8    1
    16     8     9    1
    17     8    34    1
    18     8    35    1
    19     9    10    1
    20     9    36    1
    21     9    37    1
    22    10    11   am
    23    10    38    1
    24    11    12    2
    25    11    13    1
    26    13    25   ar
    27    13    14   ar
    28    14    15   ar
    29    14    39    1
    30    15    16   ar
    31    15    40    1
    32    16    17   ar
    33    16    41    1
    34    17    18    1
    35    17    25   ar
    36    18    19    2
    37    18    20    2
    38    18    21   am
    39    21    22    1
    40    21    42    1
    41    22    24    1
    42    22    23    1
    43    22    43    1
    44    23    24    1
    45    23    44    1
    46    23    45    1
    47    24    46    1
    48    24    47    1
    49    25    48    1
@<TRIPOS>SUBSTRUCTURE
     1 ZINC000621594459        1 TEMP              0 ****  ****    0 ROOT


##########                                Name:    ZINC000451500596
##########                DOCK_Rotatable_Bonds:                   7
##########                         Heavy_Atoms:                  25
##########                    Molecular_Weight:             365.497
##########                DOCK_Rotatable_Bonds:                   7
##########                       Formal_Charge:           0.0400004
##########                     HBond_Acceptors:                   7
##########                        HBond_Donors:                   2
##########                         Heavy_Atoms:                  25
##########                          Grid_Score:          -33.958221
##########                     Grid_vdw_energy:          -29.457596
##########                      Grid_es_energy:           -4.500627
##########           Internal_energy_repulsive:           10.318680

@<TRIPOS>MOLECULE
ZINC000451500596
 52 54 1 0 0
SMALL
USER_CHARGES


@<TRIPOS>ATOM
      1 C1         -7.6969    1.4180   65.3353 C.3     1  ZINC000451500596   -0.6700
      2 S2         -8.8345    0.0463   65.6744 S.o2    1  ZINC000451500596    2.6100
      3 O3         -8.1417   -1.0391   66.2755 O.2     1  ZINC000451500596   -0.9500
      4 O4        -10.0520    0.5322   66.2229 O.2     1  ZINC000451500596   -0.9600
      5 N5         -9.2582   -0.5190   64.1767 N.am    1  ZINC000451500596   -1.1200
      6 C6         -9.9251    0.3683   63.2206 C.3     1  ZINC000451500596    0.1200
      7 C7         -9.3999    0.0866   61.8114 C.3     1  ZINC000451500596   -0.1000
      8 H8         -9.4979   -0.9745   61.5819 H       1  ZINC000451500596    0.0900
      9 C9         -7.9223    0.5164   61.7023 C.3     1  ZINC000451500596   -0.1200
     10 C10        -7.7992    1.0930   60.2700 C.3     1  ZINC000451500596   -0.1300
     11 C11        -9.1469    1.8333   60.0826 C.3     1  ZINC000451500596   -0.1300
     12 C12       -10.1793    0.9229   60.7814 C.3     1  ZINC000451500596    0.1400
     13 H13       -10.9314    1.5297   61.2856 H       1  ZINC000451500596    0.1000
     14 N14       -10.8196    0.0443   59.7994 N.am    1  ZINC000451500596   -0.7200
     15 C15       -12.0315   -0.4855   60.0583 C.2     1  ZINC000451500596    0.5300
     16 O16       -12.5913   -0.2361   61.1050 O.2     1  ZINC000451500596   -0.5300
     17 C17       -12.6910   -1.3878   59.0475 C.3     1  ZINC000451500596   -0.1300
     18 H18       -12.2301   -1.2678   58.0671 H       1  ZINC000451500596    0.1000
     19 C19       -12.6243   -2.8680   59.5074 C.3     1  ZINC000451500596   -0.1200
     20 C20       -13.8516   -3.4761   58.7840 C.3     1  ZINC000451500596    0.0500
     21 N21       -14.8816   -2.4167   58.8324 N.3     1  ZINC000451500596   -0.4900
     22 C22       -15.6799   -2.4418   57.6865 C.ar    1  ZINC000451500596    0.0800
     23 C23       -17.0313   -2.7474   57.7860 C.ar    1  ZINC000451500596   -0.0900
     24 C24       -17.8177   -2.7709   56.6511 C.ar    1  ZINC000451500596   -0.1100
     25 C25       -17.2612   -2.4912   55.4164 C.ar    1  ZINC000451500596   -0.1200
     26 C26       -15.9162   -2.1867   55.3137 C.ar    1  ZINC000451500596   -0.1100
     27 C27       -15.1252   -2.1558   56.4454 C.ar    1  ZINC000451500596   -0.1500
     28 C28       -14.2073   -1.1100   58.9752 C.3     1  ZINC000451500596    0.0600
     29 H29        -6.8346    1.0465   64.7817 H       1  ZINC000451500596    0.1300
     30 H30        -8.2090    2.1769   64.7438 H       1  ZINC000451500596    0.1300
     31 H31        -7.3636    1.8548   66.2767 H       1  ZINC000451500596    0.1300
     32 H32        -9.0650   -1.4377   63.9325 H       1  ZINC000451500596    0.4200
     33 H33       -11.0002    0.1916   63.2496 H       1  ZINC000451500596    0.0700
     34 H34        -9.7201    1.4060   63.4840 H       1  ZINC000451500596    0.0900
     35 H35        -7.6922    1.2823   62.4430 H       1  ZINC000451500596    0.0800
     36 H36        -7.2647   -0.3441   61.8250 H       1  ZINC000451500596    0.0700
     37 H37        -6.9635    1.7897   60.2046 H       1  ZINC000451500596    0.0700
     38 H38        -7.6937    0.2916   59.5388 H       1  ZINC000451500596    0.0700
     39 H39        -9.1144    2.8118   60.5617 H       1  ZINC000451500596    0.0800
     40 H40        -9.3827    1.9337   59.0232 H       1  ZINC000451500596    0.0700
     41 H41       -10.3714   -0.1561   58.9628 H       1  ZINC000451500596    0.4000
     42 H42       -11.7003   -3.3397   59.1726 H       1  ZINC000451500596    0.0800
     43 H43       -12.7307   -2.9458   60.5894 H       1  ZINC000451500596    0.0800
     44 H44       -13.6024   -3.7162   57.7503 H       1  ZINC000451500596    0.0600
     45 H45       -14.1982   -4.3667   59.3082 H       1  ZINC000451500596    0.0900
     46 H46       -17.4665   -2.9665   58.7500 H       1  ZINC000451500596    0.1300
     47 H47       -18.8685   -3.0083   56.7278 H       1  ZINC000451500596    0.1300
     48 H48       -17.8783   -2.5110   54.5304 H       1  ZINC000451500596    0.1200
     49 H49       -15.4848   -1.9688   54.3479 H       1  ZINC000451500596    0.1200
     50 H50       -14.0749   -1.9177   56.3646 H       1  ZINC000451500596    0.1200
     51 H51       -14.5364   -0.6211   59.8920 H       1  ZINC000451500596    0.1000
     52 H52       -14.4332   -0.4802   58.1148 H       1  ZINC000451500596    0.0700
@<TRIPOS>BOND
     1     1     2    1
     2     1    29    1
     3     1    30    1
     4     1    31    1
     5     2     3    2
     6     2     4    2
     7     2     5   am
     8     5     6    1
     9     5    32    1
    10     6     7    1
    11     6    33    1
    12     6    34    1
    13     7     8    1
    14     7    12    1
    15     7     9    1
    16     9    10    1
    17     9    35    1
    18     9    36    1
    19    10    11    1
    20    10    37    1
    21    10    38    1
    22    11    12    1
    23    11    39    1
    24    11    40    1
    25    12    13    1
    26    12    14    1
    27    14    15   am
    28    14    41    1
    29    15    16    2
    30    15    17    1
    31    17    18    1
    32    17    28    1
    33    17    19    1
    34    19    20    1
    35    19    42    1
    36    19    43    1
    37    20    21    1
    38    20    44    1
    39    20    45    1
    40    21    22    1
    41    21    28    1
    42    22    27   ar
    43    22    23   ar
    44    23    24   ar
    45    23    46    1
    46    24    25   ar
    47    24    47    1
    48    25    26   ar
    49    25    48    1
    50    26    27   ar
    51    26    49    1
    52    27    50    1
    53    28    51    1
    54    28    52    1
@<TRIPOS>SUBSTRUCTURE
     1 ZINC000451500596        1 TEMP              0 ****  ****    0 ROOT


##########                                Name:    ZINC000484900616
##########                DOCK_Rotatable_Bonds:                  10
##########                         Heavy_Atoms:                  29
##########                    Molecular_Weight:             415.556
##########                DOCK_Rotatable_Bonds:                  10
##########                       Formal_Charge:        -1.49012e-08
##########                     HBond_Acceptors:                   7
##########                        HBond_Donors:                   1
##########                         Heavy_Atoms:                  29
##########                          Grid_Score:          -33.927246
##########                     Grid_vdw_energy:          -32.018845
##########                      Grid_es_energy:           -1.908403
##########           Internal_energy_repulsive:           10.313408

@<TRIPOS>MOLECULE
ZINC000484900616
 58 60 1 0 0
SMALL
USER_CHARGES


@<TRIPOS>ATOM
      1 C1         -6.4603    3.0164   49.8241 C.3     1  ZINC000484900616   -0.1500
      2 C2         -5.6973    1.9399   50.5986 C.3     1  ZINC000484900616    0.0600
      3 O3         -5.2758    2.4737   51.8814 O.3     1  ZINC000484900616   -0.3400
      4 C4         -6.1778    2.4439   52.8827 C.2     1  ZINC000484900616    0.5500
      5 O5         -7.3554    2.2724   52.6350 O.2     1  ZINC000484900616   -0.5000
      6 C6         -5.7370    2.6189   54.2754 C.2     1  ZINC000484900616    0.0200
      7 C7         -4.4639    2.9246   54.6156 C.2     1  ZINC000484900616   -0.2400
      8 S8         -4.3609    3.0414   56.3179 S.3     1  ZINC000484900616    0.2900
      9 C9         -6.0213    2.6758   56.4774 C.2     1  ZINC000484900616    0.0300
     10 C10        -6.7571    2.5821   57.7894 C.3     1  ZINC000484900616    0.1500
     11 H11        -6.0588    2.3808   58.6017 H       1  ZINC000484900616    0.0900
     12 C12        -7.5400    3.8904   58.0632 C.3     1  ZINC000484900616   -0.1200
     13 C13        -8.6542    3.3940   59.0218 C.3     1  ZINC000484900616   -0.1400
     14 C14        -8.9720    1.9827   58.4844 C.3     1  ZINC000484900616    0.0500
     15 N15        -7.7907    1.5269   57.7257 N.3     1  ZINC000484900616   -0.5100
     16 C16        -7.2831    0.2545   58.2559 C.3     1  ZINC000484900616    0.0300
     17 C17        -7.9749   -0.8905   57.5621 C.2     1  ZINC000484900616    0.5200
     18 O18        -8.2692   -0.8000   56.3891 O.2     1  ZINC000484900616   -0.5100
     19 N19        -8.2665   -2.0151   58.2452 N.am    1  ZINC000484900616   -0.7300
     20 C20        -8.9375   -3.1289   57.5703 C.3     1  ZINC000484900616    0.1900
     21 H21        -8.7778   -3.0515   56.4949 H       1  ZINC000484900616    0.1000
     22 C22        -8.3625   -4.4531   58.0773 C.3     1  ZINC000484900616   -0.1600
     23 C23       -10.4147   -3.0776   57.8638 C.ar    1  ZINC000484900616   -0.1000
     24 C24       -11.3278   -3.3715   56.8683 C.ar    1  ZINC000484900616   -0.1100
     25 C25       -12.6828   -3.3245   57.1375 C.ar    1  ZINC000484900616   -0.1100
     26 C26       -13.1249   -2.9840   58.4022 C.ar    1  ZINC000484900616   -0.0800
     27 C27       -14.6022   -2.9323   58.6956 C.3     1  ZINC000484900616   -0.0900
     28 C28       -15.1000   -1.4925   58.5545 C.3     1  ZINC000484900616   -0.1500
     29 C29       -12.2118   -2.6915   59.3980 C.ar    1  ZINC000484900616   -0.1100
     30 C30       -10.8566   -2.7423   59.1298 C.ar    1  ZINC000484900616   -0.1000
     31 N31        -6.5579    2.4966   55.3223 N.2     1  ZINC000484900616   -0.4300
     32 H32        -7.3365    3.3230   50.3956 H       1  ZINC000484900616    0.0700
     33 H33        -5.8115    3.8775   49.6639 H       1  ZINC000484900616    0.0700
     34 H34        -6.7768    2.6157   48.8610 H       1  ZINC000484900616    0.0800
     35 H35        -6.3461    1.0789   50.7588 H       1  ZINC000484900616    0.0700
     36 H36        -4.8212    1.6332   50.0270 H       1  ZINC000484900616    0.0700
     37 H37        -3.6466    3.0709   53.9249 H       1  ZINC000484900616    0.1900
     38 H38        -6.9057    4.6302   58.5516 H       1  ZINC000484900616    0.0900
     39 H39        -7.9662    4.2903   57.1431 H       1  ZINC000484900616    0.0800
     40 H40        -8.2862    3.3423   60.0465 H       1  ZINC000484900616    0.0700
     41 H41        -9.5320    4.0371   58.9585 H       1  ZINC000484900616    0.0800
     42 H42        -9.1616    1.3034   59.3154 H       1  ZINC000484900616    0.0600
     43 H43        -9.8422    2.0227   57.8292 H       1  ZINC000484900616    0.0900
     44 H44        -6.2093    0.1903   58.0805 H       1  ZINC000484900616    0.1100
     45 H45        -7.4801    0.2029   59.3268 H       1  ZINC000484900616    0.0700
     46 H46        -8.0323   -2.0870   59.1838 H       1  ZINC000484900616    0.4000
     47 H47        -8.8617   -5.2819   57.5752 H       1  ZINC000484900616    0.0700
     48 H48        -7.2940   -4.4903   57.8650 H       1  ZINC000484900616    0.0700
     49 H49        -8.5222   -4.5306   59.1527 H       1  ZINC000484900616    0.0600
     50 H50       -10.9824   -3.6375   55.8802 H       1  ZINC000484900616    0.1200
     51 H51       -13.3962   -3.5533   56.3595 H       1  ZINC000484900616    0.1200
     52 H52       -15.1349   -3.5716   57.9917 H       1  ZINC000484900616    0.0700
     53 H53       -14.7831   -3.2813   59.7123 H       1  ZINC000484900616    0.0700
     54 H54       -14.5672   -0.8532   59.2585 H       1  ZINC000484900616    0.0600
     55 H55       -14.9191   -1.1434   57.5379 H       1  ZINC000484900616    0.0600
     56 H56       -16.1685   -1.4551   58.7668 H       1  ZINC000484900616    0.0600
     57 H57       -12.5571   -2.4259   60.3863 H       1  ZINC000484900616    0.1200
     58 H58       -10.1432   -2.5138   59.9079 H       1  ZINC000484900616    0.1200
@<TRIPOS>BOND
     1     1     2    1
     2     1    32    1
     3     1    33    1
     4     1    34    1
     5     2     3    1
     6     2    35    1
     7     2    36    1
     8     3     4    1
     9     4     5    2
    10     4     6    1
    11     6    31    1
    12     6     7    2
    13     7     8    1
    14     7    37    1
    15     8     9    1
    16     9    10    1
    17     9    31    2
    18    10    11    1
    19    10    15    1
    20    10    12    1
    21    12    13    1
    22    12    38    1
    23    12    39    1
    24    13    14    1
    25    13    40    1
    26    13    41    1
    27    14    15    1
    28    14    42    1
    29    14    43    1
    30    15    16    1
    31    16    17    1
    32    16    44    1
    33    16    45    1
    34    17    18    2
    35    17    19   am
    36    19    20    1
    37    19    46    1
    38    20    21    1
    39    20    22    1
    40    20    23    1
    41    22    47    1
    42    22    48    1
    43    22    49    1
    44    23    30   ar
    45    23    24   ar
    46    24    25   ar
    47    24    50    1
    48    25    26   ar
    49    25    51    1
    50    26    27    1
    51    26    29   ar
    52    27    28    1
    53    27    52    1
    54    27    53    1
    55    28    54    1
    56    28    55    1
    57    28    56    1
    58    29    30   ar
    59    29    57    1
    60    30    58    1
@<TRIPOS>SUBSTRUCTURE
     1 ZINC000484900616        1 TEMP              0 ****  ****    0 ROOT


##########                                Name:    ZINC000840464592
##########                DOCK_Rotatable_Bonds:                  10
##########                         Heavy_Atoms:                  26
##########                    Molecular_Weight:             360.497
##########                DOCK_Rotatable_Bonds:                  10
##########                       Formal_Charge:          -0.0399996
##########                     HBond_Acceptors:                   5
##########                        HBond_Donors:                   1
##########                         Heavy_Atoms:                  26
##########                          Grid_Score:          -33.904793
##########                     Grid_vdw_energy:          -33.413364
##########                      Grid_es_energy:           -0.491430
##########           Internal_energy_repulsive:           81.161087

@<TRIPOS>MOLECULE
ZINC000840464592
 58 59 1 0 0
SMALL
USER_CHARGES


@<TRIPOS>ATOM
      1 C1         -7.6730   -0.1805   66.0368 C.3     1  ZINC000840464592   -0.1500
      2 C2         -7.6067    0.2784   64.5787 C.3     1  ZINC000840464592   -0.1300
      3 C3         -9.0238    0.5202   64.0552 C.3     1  ZINC000840464592   -0.1200
      4 C4         -8.9571    1.3261   62.7564 C.3     1  ZINC000840464592   -0.1200
      5 C5         -8.5237    0.4104   61.6098 C.3     1  ZINC000840464592   -0.1200
      6 C6         -9.7195   -0.4215   61.1417 C.3     1  ZINC000840464592    0.0600
      7 O7        -10.1878    0.0808   59.8885 O.3     1  ZINC000840464592   -0.3600
      8 C8        -11.6116    0.1164   59.7721 C.3     1  ZINC000840464592    0.0800
      9 H9        -12.0369   -0.7705   60.2421 H       1  ZINC000840464592    0.0800
     10 C10       -12.1490    1.3691   60.4669 C.3     1  ZINC000840464592   -0.1800
     11 C11       -11.9960    0.1460   58.3153 C.2     1  ZINC000840464592    0.5200
     12 O12       -12.2704    1.2000   57.7818 O.2     1  ZINC000840464592   -0.5000
     13 N13       -12.0349   -0.9988   57.6051 N.am    1  ZINC000840464592   -0.6000
     14 C14       -12.4080   -0.9652   56.1933 C.3     1  ZINC000840464592    0.0900
     15 C15       -13.6906   -1.7480   55.9352 C.3     1  ZINC000840464592   -0.1600
     16 C16       -13.4861   -3.2247   56.2806 C.3     1  ZINC000840464592    0.0800
     17 N17       -13.8043   -3.4341   57.6972 N.am    1  ZINC000840464592   -0.7200
     18 C18       -12.9878   -2.9631   58.6530 C.2     1  ZINC000840464592    0.5100
     19 O19       -13.2770   -3.0911   59.8240 O.2     1  ZINC000840464592   -0.5200
     20 C20       -11.6964   -2.2705   58.2527 C.3     1  ZINC000840464592    0.1400
     21 H21       -11.0928   -2.0812   59.1402 H       1  ZINC000840464592    0.1300
     22 C22       -10.9168   -3.1597   57.2819 C.3     1  ZINC000840464592   -0.1000
     23 C23        -9.4835   -3.2628   57.7356 C.ar    1  ZINC000840464592   -0.0900
     24 C24        -8.9983   -4.4606   58.2264 C.ar    1  ZINC000840464592   -0.1100
     25 C25        -7.6836   -4.5552   58.6426 C.ar    1  ZINC000840464592   -0.1200
     26 C26        -6.8538   -3.4521   58.5677 C.ar    1  ZINC000840464592   -0.1200
     27 C27        -7.3387   -2.2546   58.0761 C.ar    1  ZINC000840464592   -0.1200
     28 C28        -8.6523   -2.1612   57.6560 C.ar    1  ZINC000840464592   -0.1100
     29 H29        -8.2467   -1.1050   66.1009 H       1  ZINC000840464592    0.0500
     30 H30        -6.6633   -0.3528   66.4097 H       1  ZINC000840464592    0.0500
     31 H31        -8.1560    0.5894   66.6383 H       1  ZINC000840464592    0.0500
     32 H32        -7.0329    1.2029   64.5145 H       1  ZINC000840464592    0.0600
     33 H33        -7.1236   -0.4915   63.9771 H       1  ZINC000840464592    0.0600
     34 H34        -9.5090   -0.4370   63.8643 H       1  ZINC000840464592    0.0600
     35 H35        -9.5958    1.0757   64.7984 H       1  ZINC000840464592    0.0600
     36 H36        -9.9399    1.7430   62.5366 H       1  ZINC000840464592    0.0600
     37 H37        -8.2356    2.1354   62.8675 H       1  ZINC000840464592    0.0600
     38 H38        -8.1553    1.0153   60.7812 H       1  ZINC000840464592    0.0700
     39 H39        -7.7318   -0.2541   61.9549 H       1  ZINC000840464592    0.0700
     40 H40        -9.4152   -1.4616   61.0254 H       1  ZINC000840464592    0.0500
     41 H41       -10.5184   -0.3571   61.8804 H       1  ZINC000840464592    0.0500
     42 H42       -13.2267    1.4336   60.3171 H       1  ZINC000840464592    0.0800
     43 H43       -11.9330    1.3138   61.5339 H       1  ZINC000840464592    0.0700
     44 H44       -11.6701    2.2524   60.0446 H       1  ZINC000840464592    0.0800
     45 H45       -12.5557    0.0709   55.8885 H       1  ZINC000840464592    0.1000
     46 H46       -11.6016   -1.3978   55.6013 H       1  ZINC000840464592    0.0800
     47 H47       -14.4925   -1.3406   56.5510 H       1  ZINC000840464592    0.0800
     48 H48       -13.9637   -1.6574   54.8839 H       1  ZINC000840464592    0.1000
     49 H49       -14.1442   -3.8376   55.6647 H       1  ZINC000840464592    0.0900
     50 H50       -12.4484   -3.5021   56.0952 H       1  ZINC000840464592    0.1000
     51 H51       -14.6094   -3.9153   57.9448 H       1  ZINC000840464592    0.4000
     52 H52       -11.3636   -4.1537   57.2607 H       1  ZINC000840464592    0.0900
     53 H53       -10.9514   -2.7246   56.2831 H       1  ZINC000840464592    0.1000
     54 H54        -9.6466   -5.3225   58.2849 H       1  ZINC000840464592    0.1200
     55 H55        -7.3048   -5.4909   59.0266 H       1  ZINC000840464592    0.1200
     56 H56        -5.8267   -3.5258   58.8936 H       1  ZINC000840464592    0.1200
     57 H57        -6.6905   -1.3927   58.0180 H       1  ZINC000840464592    0.1200
     58 H58        -9.0311   -1.2255   57.2719 H       1  ZINC000840464592    0.1200
@<TRIPOS>BOND
     1     1     2    1
     2     1    29    1
     3     1    30    1
     4     1    31    1
     5     2     3    1
     6     2    32    1
     7     2    33    1
     8     3     4    1
     9     3    34    1
    10     3    35    1
    11     4     5    1
    12     4    36    1
    13     4    37    1
    14     5     6    1
    15     5    38    1
    16     5    39    1
    17     6     7    1
    18     6    40    1
    19     6    41    1
    20     7     8    1
    21     8     9    1
    22     8    10    1
    23     8    11    1
    24    10    42    1
    25    10    43    1
    26    10    44    1
    27    11    12    2
    28    11    13   am
    29    13    20    1
    30    13    14    1
    31    14    15    1
    32    14    45    1
    33    14    46    1
    34    15    16    1
    35    15    47    1
    36    15    48    1
    37    16    17    1
    38    16    49    1
    39    16    50    1
    40    17    18   am
    41    17    51    1
    42    18    19    2
    43    18    20    1
    44    20    21    1
    45    20    22    1
    46    22    23    1
    47    22    52    1
    48    22    53    1
    49    23    28   ar
    50    23    24   ar
    51    24    25   ar
    52    24    54    1
    53    25    26   ar
    54    25    55    1
    55    26    27   ar
    56    26    56    1
    57    27    28   ar
    58    27    57    1
    59    28    58    1
@<TRIPOS>SUBSTRUCTURE
     1 ZINC000840464592        1 TEMP              0 ****  ****    0 ROOT


##########                                Name:    ZINC000467185792
##########                DOCK_Rotatable_Bonds:                   9
##########                         Heavy_Atoms:                  29
##########                    Molecular_Weight:             412.513
##########                DOCK_Rotatable_Bonds:                   9
##########                       Formal_Charge:                0.04
##########                     HBond_Acceptors:                   8
##########                        HBond_Donors:                   2
##########                         Heavy_Atoms:                  29
##########                          Grid_Score:          -33.898640
##########                     Grid_vdw_energy:          -32.055119
##########                      Grid_es_energy:           -1.843523
##########           Internal_energy_repulsive:           28.153950

@<TRIPOS>MOLECULE
ZINC000467185792
 53 55 1 0 0
SMALL
USER_CHARGES


@<TRIPOS>ATOM
      1 C1        -10.5195   -2.7499   58.5850 C.3     1  ZINC000467185792   -0.1500
      2 C2        -10.4712   -1.3951   59.2943 C.3     1  ZINC000467185792   -0.1200
      3 C3         -9.2500   -0.6099   58.8115 C.3     1  ZINC000467185792    0.0600
      4 O4         -9.3330   -0.4225   57.3973 O.3     1  ZINC000467185792   -0.3100
      5 C5         -8.3377    0.2931   56.8102 C.ar    1  ZINC000467185792    0.1400
      6 C6         -7.3208    0.8312   57.5869 C.ar    1  ZINC000467185792   -0.2100
      7 C7         -6.3091    1.5576   56.9942 C.ar    1  ZINC000467185792   -0.0400
      8 C8         -6.3086    1.7510   55.6137 C.ar    1  ZINC000467185792   -0.0600
      9 C9         -5.2218    2.5312   54.9729 C.2     1  ZINC000467185792    0.1400
     10 C10        -4.4640    3.4055   55.6588 C.2     1  ZINC000467185792   -0.3000
     11 S11        -3.2986    4.1168   54.5448 S.3     1  ZINC000467185792    0.2000
     12 C12        -3.9594    3.1458   53.2326 C.2     1  ZINC000467185792    0.2800
     13 N13        -3.5113    3.1608   51.9188 N.am    1  ZINC000467185792   -0.6100
     14 C14        -3.7076    2.0875   51.1274 C.2     1  ZINC000467185792    0.5900
     15 O15        -4.2774    1.1060   51.5644 O.2     1  ZINC000467185792   -0.4900
     16 C16        -3.2319    2.1035   49.7329 C.2     1  ZINC000467185792   -0.2400
     17 C17        -1.9267    1.7383   49.4090 C.2     1  ZINC000467185792    0.0800
     18 C18        -0.9525    1.3122   50.4769 C.3     1  ZINC000467185792   -0.1200
     19 C19        -0.1730    2.5321   50.9722 C.3     1  ZINC000467185792   -0.1400
     20 C20        -1.5475    1.7786   48.0617 C.2     1  ZINC000467185792    0.0600
     21 C21        -0.1452    1.3910   47.6688 C.3     1  ZINC000467185792   -0.0600
     22 C22        -0.1020   -0.1030   47.3413 C.3     1  ZINC000467185792   -0.1500
     23 N23        -2.3979    2.1485   47.1430 N.2     1  ZINC000467185792   -0.1800
     24 N24        -3.6056    2.4906   47.4063 N.am    1  ZINC000467185792   -0.4300
     25 C25        -4.0893    2.4869   48.6632 C.2     1  ZINC000467185792    0.5000
     26 O26        -5.2419    2.8174   48.8831 O.2     1  ZINC000467185792   -0.5300
     27 N27        -4.9269    2.4106   53.6863 N.2     1  ZINC000467185792   -0.5000
     28 C28        -7.3312    1.2093   54.8366 C.ar    1  ZINC000467185792   -0.0600
     29 C29        -8.3372    0.4795   55.4348 C.ar    1  ZINC000467185792   -0.1500
     30 H30        -9.6134   -3.3114   58.8121 H       1  ZINC000467185792    0.0600
     31 H31       -11.3894   -3.3093   58.9289 H       1  ZINC000467185792    0.0700
     32 H32       -10.5901   -2.5941   57.5085 H       1  ZINC000467185792    0.0600
     33 H33       -11.3774   -0.8335   59.0671 H       1  ZINC000467185792    0.0700
     34 H34       -10.4007   -1.5510   60.3708 H       1  ZINC000467185792    0.0700
     35 H35        -9.2236    0.3611   59.3058 H       1  ZINC000467185792    0.0600
     36 H36        -8.3431   -1.1648   59.0518 H       1  ZINC000467185792    0.0600
     37 H37        -7.3220    0.6814   58.6564 H       1  ZINC000467185792    0.1300
     38 H38        -5.5183    1.9763   57.5991 H       1  ZINC000467185792    0.1300
     39 H39        -4.5544    3.6327   56.7107 H       1  ZINC000467185792    0.1800
     40 H40        -3.0568    3.9436   51.5702 H       1  ZINC000467185792    0.4400
     41 H41        -1.4976    0.8669   51.3092 H       1  ZINC000467185792    0.0900
     42 H42        -0.2581    0.5803   50.0642 H       1  ZINC000467185792    0.1300
     43 H43         0.3722    2.9773   50.1399 H       1  ZINC000467185792    0.0600
     44 H44        -0.8674    3.2640   51.3849 H       1  ZINC000467185792    0.0600
     45 H45         0.5316    2.2238   51.7447 H       1  ZINC000467185792    0.0700
     46 H46         0.1581    1.9640   46.7926 H       1  ZINC000467185792    0.1000
     47 H47         0.5348    1.6018   48.4941 H       1  ZINC000467185792    0.1000
     48 H48         0.9123   -0.3833   47.0570 H       1  ZINC000467185792    0.0600
     49 H49        -0.4053   -0.6760   48.2174 H       1  ZINC000467185792    0.0600
     50 H50        -0.7820   -0.3138   46.5159 H       1  ZINC000467185792    0.0600
     51 H51        -4.1890    2.7559   46.6782 H       1  ZINC000467185792    0.4500
     52 H52        -7.3337    1.3578   53.7669 H       1  ZINC000467185792    0.1300
     53 H53        -9.1296    0.0593   54.8332 H       1  ZINC000467185792    0.1400
@<TRIPOS>BOND
     1     1     2    1
     2     1    30    1
     3     1    31    1
     4     1    32    1
     5     2     3    1
     6     2    33    1
     7     2    34    1
     8     3     4    1
     9     3    35    1
    10     3    36    1
    11     4     5    1
    12     5    29   ar
    13     5     6   ar
    14     6     7   ar
    15     6    37    1
    16     7     8   ar
    17     7    38    1
    18     8     9    1
    19     8    28   ar
    20     9    27    1
    21     9    10    2
    22    10    11    1
    23    10    39    1
    24    11    12    1
    25    12    13    1
    26    12    27    2
    27    13    14   am
    28    13    40    1
    29    14    15    2
    30    14    16    1
    31    16    25    1
    32    16    17    2
    33    17    18    1
    34    17    20    1
    35    18    19    1
    36    18    41    1
    37    18    42    1
    38    19    43    1
    39    19    44    1
    40    19    45    1
    41    20    21    1
    42    20    23    2
    43    21    22    1
    44    21    46    1
    45    21    47    1
    46    22    48    1
    47    22    49    1
    48    22    50    1
    49    23    24    1
    50    24    25   am
    51    24    51    1
    52    25    26    2
    53    28    29   ar
    54    28    52    1
    55    29    53    1
@<TRIPOS>SUBSTRUCTURE
     1 ZINC000467185792        1 TEMP              0 ****  ****    0 ROOT


##########                                Name:    ZINC000460972051
##########                DOCK_Rotatable_Bonds:                  10
##########                         Heavy_Atoms:                  29
##########                    Molecular_Weight:             417.572
##########                DOCK_Rotatable_Bonds:                  10
##########                       Formal_Charge:         3.31551e-07
##########                     HBond_Acceptors:                   7
##########                        HBond_Donors:                   2
##########                         Heavy_Atoms:                  29
##########                          Grid_Score:          -33.851593
##########                     Grid_vdw_energy:          -32.826565
##########                      Grid_es_energy:           -1.025029
##########           Internal_energy_repulsive:           31.789982

@<TRIPOS>MOLECULE
ZINC000460972051
 60 61 1 0 0
SMALL
USER_CHARGES


@<TRIPOS>ATOM
      1 C1         -6.7939    2.1167   52.9636 C.3     1  ZINC000460972051   -0.1800
      2 C2         -8.1942    2.2568   53.5638 C.3     1  ZINC000460972051    0.1000
      3 N3         -8.5325    1.0384   54.3038 N.am    1  ZINC000460972051   -0.6200
      4 C4         -8.0751    0.8638   55.5594 C.2     1  ZINC000460972051    0.7100
      5 O5         -7.3805    1.7167   56.0776 O.2     1  ZINC000460972051   -0.5800
      6 N6         -8.3877   -0.2563   56.2407 N.am    1  ZINC000460972051   -0.7400
      7 C7         -7.8920   -0.4455   57.6063 C.3     1  ZINC000460972051    0.2000
      8 H8         -6.9124    0.0224   57.7052 H       1  ZINC000460972051    0.1100
      9 C9         -8.8661    0.1966   58.5961 C.3     1  ZINC000460972051    0.1100
     10 N10        -9.7604   -0.8302   59.1368 N.am    1  ZINC000460972051   -1.1200
     11 S11       -10.8103   -0.4527   60.3604 S.o2    1  ZINC000460972051    2.7000
     12 O12       -11.5525    0.6756   59.9186 O.2     1  ZINC000460972051   -0.9500
     13 O13       -11.4170   -1.6742   60.7597 O.2     1  ZINC000460972051   -0.9600
     14 C14        -9.8428    0.0926   61.7283 C.ar    1  ZINC000460972051   -0.6900
     15 C15        -8.4992   -0.2243   61.7944 C.ar    1  ZINC000460972051   -0.0100
     16 C16        -7.7400    0.2036   62.8678 C.ar    1  ZINC000460972051   -0.1500
     17 C17        -8.3246    0.9486   63.8745 C.ar    1  ZINC000460972051   -0.0200
     18 C18        -7.4973    1.4146   65.0447 C.3     1  ZINC000460972051   -0.1300
     19 C19        -9.6684    1.2668   63.8076 C.ar    1  ZINC000460972051   -0.1500
     20 C20       -10.4265    0.8423   62.7327 C.ar    1  ZINC000460972051    0.0300
     21 C21       -11.8912    1.1891   62.6598 C.3     1  ZINC000460972051   -0.1700
     22 C22        -7.7766   -1.9192   57.8993 C.ar    1  ZINC000460972051   -0.1000
     23 C23        -6.7188   -2.3934   58.6522 C.ar    1  ZINC000460972051   -0.1000
     24 C24        -6.6130   -3.7453   58.9210 C.ar    1  ZINC000460972051   -0.1200
     25 C25        -7.5652   -4.6229   58.4372 C.ar    1  ZINC000460972051   -0.1200
     26 C26        -8.6235   -4.1485   57.6850 C.ar    1  ZINC000460972051   -0.1200
     27 C27        -8.7316   -2.7961   57.4198 C.ar    1  ZINC000460972051   -0.1000
     28 C28        -9.3679    0.0100   53.6787 C.3     1  ZINC000460972051    0.1500
     29 C29       -10.8391    0.4180   53.7784 C.3     1  ZINC000460972051   -0.1600
     30 C30        -8.9784   -0.1384   52.2066 C.3     1  ZINC000460972051   -0.1600
     31 H31        -6.5422    3.0231   52.4132 H       1  ZINC000460972051    0.0700
     32 H32        -6.0693    1.9645   53.7636 H       1  ZINC000460972051    0.0600
     33 H33        -6.7725    1.2627   52.2867 H       1  ZINC000460972051    0.0700
     34 H34        -8.2157    3.1108   54.2408 H       1  ZINC000460972051    0.0700
     35 H35        -8.9189    2.4090   52.7638 H       1  ZINC000460972051    0.0900
     36 H36        -8.9408   -0.9373   55.8269 H       1  ZINC000460972051    0.4000
     37 H37        -8.3062    0.6562   59.4106 H       1  ZINC000460972051    0.0900
     38 H38        -9.4546    0.9581   58.0844 H       1  ZINC000460972051    0.0900
     39 H39        -9.7376   -1.7311   58.7779 H       1  ZINC000460972051    0.4200
     40 H40        -8.0423   -0.8066   61.0079 H       1  ZINC000460972051    0.1400
     41 H41        -6.6902   -0.0447   62.9199 H       1  ZINC000460972051    0.1300
     42 H42        -7.0683    2.3913   64.8203 H       1  ZINC000460972051    0.0800
     43 H43        -8.1293    1.4899   65.9295 H       1  ZINC000460972051    0.0700
     44 H44        -6.6958    0.6998   65.2305 H       1  ZINC000460972051    0.0700
     45 H45       -10.1252    1.8493   64.5940 H       1  ZINC000460972051    0.1300
     46 H46       -12.0235    2.0801   62.0461 H       1  ZINC000460972051    0.0900
     47 H47       -12.4398    0.3579   62.2168 H       1  ZINC000460972051    0.1000
     48 H48       -12.2698    1.3802   63.6640 H       1  ZINC000460972051    0.0900
     49 H49        -5.9748   -1.7079   59.0303 H       1  ZINC000460972051    0.1200
     50 H50        -5.7861   -4.1159   59.5086 H       1  ZINC000460972051    0.1200
     51 H51        -7.4821   -5.6791   58.6465 H       1  ZINC000460972051    0.1200
     52 H52        -9.3673   -4.8341   57.3067 H       1  ZINC000460972051    0.1200
     53 H53        -9.5585   -2.4255   56.8321 H       1  ZINC000460972051    0.1200
     54 H54        -9.2188   -0.9402   54.1915 H       1  ZINC000460972051    0.1000
     55 H55       -11.1167    0.5237   54.8272 H       1  ZINC000460972051    0.0600
     56 H56       -10.9882    1.3682   53.2657 H       1  ZINC000460972051    0.0600
     57 H57       -11.4607   -0.3472   53.3133 H       1  ZINC000460972051    0.0700
     58 H58        -7.9303   -0.4290   52.1356 H       1  ZINC000460972051    0.0600
     59 H59        -9.5999   -0.9035   51.7416 H       1  ZINC000460972051    0.0700
     60 H60        -9.1275    0.8119   51.6938 H       1  ZINC000460972051    0.0600
@<TRIPOS>BOND
     1     1     2    1
     2     1    31    1
     3     1    32    1
     4     1    33    1
     5     2     3    1
     6     2    34    1
     7     2    35    1
     8     3     4   am
     9     3    28    1
    10     4     5    2
    11     4     6   am
    12     6     7    1
    13     6    36    1
    14     7     8    1
    15     7     9    1
    16     7    22    1
    17     9    10    1
    18     9    37    1
    19     9    38    1
    20    10    11   am
    21    10    39    1
    22    11    12    2
    23    11    13    2
    24    11    14    1
    25    14    20   ar
    26    14    15   ar
    27    15    16   ar
    28    15    40    1
    29    16    17   ar
    30    16    41    1
    31    17    18    1
    32    17    19   ar
    33    18    42    1
    34    18    43    1
    35    18    44    1
    36    19    20   ar
    37    19    45    1
    38    20    21    1
    39    21    46    1
    40    21    47    1
    41    21    48    1
    42    22    27   ar
    43    22    23   ar
    44    23    24   ar
    45    23    49    1
    46    24    25   ar
    47    24    50    1
    48    25    26   ar
    49    25    51    1
    50    26    27   ar
    51    26    52    1
    52    27    53    1
    53    28    29    1
    54    28    30    1
    55    28    54    1
    56    29    55    1
    57    29    56    1
    58    29    57    1
    59    30    58    1
    60    30    59    1
    61    30    60    1
@<TRIPOS>SUBSTRUCTURE
     1 ZINC000460972051        1 TEMP              0 ****  ****    0 ROOT


##########                                Name:    ZINC000487792031
##########                DOCK_Rotatable_Bonds:                  12
##########                         Heavy_Atoms:                  29
##########                    Molecular_Weight:             414.569
##########                DOCK_Rotatable_Bonds:                  12
##########                       Formal_Charge:          -0.0100001
##########                     HBond_Acceptors:                   6
##########                        HBond_Donors:                   1
##########                         Heavy_Atoms:                  29
##########                          Grid_Score:          -33.785961
##########                     Grid_vdw_energy:          -32.447506
##########                      Grid_es_energy:           -1.338454
##########           Internal_energy_repulsive:           19.153324

@<TRIPOS>MOLECULE
ZINC000487792031
 59 60 1 0 0
SMALL
USER_CHARGES


@<TRIPOS>ATOM
      1 C1        -11.3333    3.8699   49.4257 C.2     1  ZINC000487792031   -0.1900
      2 C2        -10.0954    3.9284   49.8502 C.2     1  ZINC000487792031   -0.1500
      3 C3         -9.8083    4.2509   51.2940 C.3     1  ZINC000487792031   -0.0900
      4 C4         -8.3164    4.5441   51.4642 C.3     1  ZINC000487792031   -0.0900
      5 C5         -7.5168    3.2559   51.2589 C.3     1  ZINC000487792031   -0.0700
      6 H6         -7.8271    2.7801   50.3286 H       1  ZINC000487792031    0.1100
      7 C7         -6.0472    3.5825   51.1901 C.2     1  ZINC000487792031    0.5200
      8 O8         -5.6866    4.7357   51.0843 O.2     1  ZINC000487792031   -0.5300
      9 N9         -5.1336    2.5932   51.2461 N.am    1  ZINC000487792031   -0.7200
     10 C10        -3.7051    2.9105   51.1775 C.3     1  ZINC000487792031    0.1500
     11 C11        -3.1228    2.3351   49.9122 C.ar    1  ZINC000487792031   -0.0500
     12 C12        -2.3564    1.1858   49.9644 C.ar    1  ZINC000487792031   -0.1200
     13 C13        -1.8223    0.6580   48.8038 C.ar    1  ZINC000487792031   -0.0200
     14 C14        -2.0550    1.2791   47.5909 C.ar    1  ZINC000487792031   -0.6700
     15 S15        -1.3738    0.6065   46.1117 S.o2    1  ZINC000487792031    2.6900
     16 O16        -1.3901   -0.8057   46.2682 O.2     1  ZINC000487792031   -0.9500
     17 O17        -2.0140    1.2765   45.0343 O.2     1  ZINC000487792031   -0.9500
     18 N18         0.2200    1.0528   46.0590 N.am    1  ZINC000487792031   -1.0000
     19 C19         1.1317    0.6413   47.1294 C.3     1  ZINC000487792031    0.1200
     20 C20         1.4557    1.8465   48.0146 C.3     1  ZINC000487792031   -0.1800
     21 C21         0.7183    1.8591   44.9419 C.3     1  ZINC000487792031    0.1100
     22 C22         1.0493    0.9446   43.7607 C.3     1  ZINC000487792031   -0.1800
     23 C23        -2.8226    2.4276   47.5386 C.ar    1  ZINC000487792031   -0.0200
     24 C24        -3.3599    2.9533   48.6988 C.ar    1  ZINC000487792031   -0.1200
     25 C25        -7.7696    2.3186   52.4114 C.ar    1  ZINC000487792031   -0.0800
     26 C26        -7.2630    2.6108   53.6640 C.ar    1  ZINC000487792031   -0.1100
     27 C27        -7.4950    1.7509   54.7212 C.ar    1  ZINC000487792031   -0.1100
     28 C28        -8.2339    0.5991   54.5259 C.ar    1  ZINC000487792031   -0.1200
     29 C29        -8.7413    0.3073   53.2736 C.ar    1  ZINC000487792031   -0.1200
     30 C30        -8.5129    1.1694   52.2174 C.ar    1  ZINC000487792031   -0.1100
     31 H31       -11.5391    3.6388   48.3910 H       1  ZINC000487792031    0.1000
     32 H32       -12.1483    4.0485   50.1115 H       1  ZINC000487792031    0.1000
     33 H33        -9.2805    3.7456   49.1654 H       1  ZINC000487792031    0.1100
     34 H34       -10.3869    5.1249   51.5931 H       1  ZINC000487792031    0.0700
     35 H35       -10.0851    3.4011   51.9181 H       1  ZINC000487792031    0.0700
     36 H36        -8.0056    5.2859   50.7285 H       1  ZINC000487792031    0.0800
     37 H37        -8.1340    4.9289   52.4676 H       1  ZINC000487792031    0.0700
     38 H38        -5.4220    1.6711   51.3318 H       1  ZINC000487792031    0.4000
     39 H39        -3.5728    3.9926   51.1790 H       1  ZINC000487792031    0.0800
     40 H40        -3.1957    2.4810   52.0401 H       1  ZINC000487792031    0.0800
     41 H41        -2.1746    0.7005   50.9120 H       1  ZINC000487792031    0.1400
     42 H42        -1.2230   -0.2395   48.8446 H       1  ZINC000487792031    0.1400
     43 H43         0.6588   -0.1348   47.7311 H       1  ZINC000487792031    0.0800
     44 H44         2.0521    0.2529   46.6934 H       1  ZINC000487792031    0.0800
     45 H45         1.9285    2.6226   47.4129 H       1  ZINC000487792031    0.0600
     46 H46         0.5353    2.2349   48.4506 H       1  ZINC000487792031    0.0600
     47 H47         2.1340    1.5404   48.8110 H       1  ZINC000487792031    0.0700
     48 H48        -0.0456    2.5768   44.6426 H       1  ZINC000487792031    0.0900
     49 H49         1.6169    2.3927   45.2513 H       1  ZINC000487792031    0.0900
     50 H50         1.8133    0.2269   44.0599 H       1  ZINC000487792031    0.0600
     51 H51         0.1508    0.4110   43.4513 H       1  ZINC000487792031    0.0600
     52 H52         1.4200    1.5446   42.9296 H       1  ZINC000487792031    0.0700
     53 H53        -3.0047    2.9127   46.5910 H       1  ZINC000487792031    0.1400
     54 H54        -3.9596    3.8506   48.6578 H       1  ZINC000487792031    0.1400
     55 H55        -6.6857    3.5107   53.8164 H       1  ZINC000487792031    0.1200
     56 H56        -7.0987    1.9788   55.6996 H       1  ZINC000487792031    0.1200
     57 H57        -8.4146   -0.0731   55.3518 H       1  ZINC000487792031    0.1200
     58 H58        -9.3183   -0.5928   53.1210 H       1  ZINC000487792031    0.1200
     59 H59        -8.9094    0.9414   51.2389 H       1  ZINC000487792031    0.1200
@<TRIPOS>BOND
     1     1     2    2
     2     1    31    1
     3     1    32    1
     4     2     3    1
     5     2    33    1
     6     3     4    1
     7     3    34    1
     8     3    35    1
     9     4     5    1
    10     4    36    1
    11     4    37    1
    12     5     6    1
    13     5     7    1
    14     5    25    1
    15     7     8    2
    16     7     9   am
    17     9    10    1
    18     9    38    1
    19    10    11    1
    20    10    39    1
    21    10    40    1
    22    11    24   ar
    23    11    12   ar
    24    12    13   ar
    25    12    41    1
    26    13    14   ar
    27    13    42    1
    28    14    15    1
    29    14    23   ar
    30    15    16    2
    31    15    17    2
    32    15    18   am
    33    18    19    1
    34    18    21    1
    35    19    20    1
    36    19    43    1
    37    19    44    1
    38    20    45    1
    39    20    46    1
    40    20    47    1
    41    21    22    1
    42    21    48    1
    43    21    49    1
    44    22    50    1
    45    22    51    1
    46    22    52    1
    47    23    24   ar
    48    23    53    1
    49    24    54    1
    50    25    30   ar
    51    25    26   ar
    52    26    27   ar
    53    26    55    1
    54    27    28   ar
    55    27    56    1
    56    28    29   ar
    57    28    57    1
    58    29    30   ar
    59    29    58    1
    60    30    59    1
@<TRIPOS>SUBSTRUCTURE
     1 ZINC000487792031        1 TEMP              0 ****  ****    0 ROOT


##########                                Name:    ZINC000432253027
##########                DOCK_Rotatable_Bonds:                   8
##########                         Heavy_Atoms:                  26
##########                    Molecular_Weight:             401.436
##########                DOCK_Rotatable_Bonds:                   8
##########                       Formal_Charge:         1.19209e-07
##########                     HBond_Acceptors:                  11
##########                        HBond_Donors:                   0
##########                         Heavy_Atoms:                  26
##########                          Grid_Score:          -33.785610
##########                     Grid_vdw_energy:          -32.256912
##########                      Grid_es_energy:           -1.528699
##########           Internal_energy_repulsive:            5.723089

@<TRIPOS>MOLECULE
ZINC000432253027
 40 42 1 0 0
SMALL
USER_CHARGES


@<TRIPOS>ATOM
      1 C1        -10.7900   -1.6329   56.2236 C.3     1  ZINC000432253027    0.0300
      2 O2        -10.3975   -1.6954   57.5963 O.3     1  ZINC000432253027   -0.3100
      3 C3         -9.4855   -2.6433   57.9343 C.ar    1  ZINC000432253027    0.1500
      4 C4         -9.8176   -3.9859   57.8591 C.ar    1  ZINC000432253027   -0.2100
      5 C5         -8.8887   -4.9499   58.2037 C.ar    1  ZINC000432253027   -0.0600
      6 C6         -7.6229   -4.5822   58.6251 C.ar    1  ZINC000432253027   -0.1600
      7 C7         -7.2766   -3.2490   58.7052 C.ar    1  ZINC000432253027   -0.0300
      8 C8         -8.2035   -2.2673   58.3546 C.ar    1  ZINC000432253027   -0.0600
      9 C9         -7.8389   -0.8377   58.4383 C.2     1  ZINC000432253027    0.1200
     10 N10        -7.3893   -0.1134   57.4536 N.2     1  ZINC000432253027   -0.4600
     11 C11        -7.1174    1.1452   57.7142 C.2     1  ZINC000432253027    0.0800
     12 C12        -6.5922    2.0853   56.6600 C.3     1  ZINC000432253027   -0.0200
     13 S13        -7.2928    1.6381   55.0477 S.3     1  ZINC000432253027   -0.1700
     14 C14        -6.0823    2.3107   53.8759 C.3     1  ZINC000432253027   -0.0300
     15 C15        -6.3826    1.7951   52.4921 C.2     1  ZINC000432253027    0.2100
     16 N16        -7.5259    1.3160   52.0664 N.2     1  ZINC000432253027   -0.2700
     17 N17        -7.3819    0.9817   50.8306 N.2     1  ZINC000432253027   -0.0500
     18 N18        -6.1763    1.2351   50.4567 N.2     1  ZINC000432253027   -0.0700
     19 N19        -5.5303    1.7427   51.4516 N.pl3   1  ZINC000432253027   -0.3100
     20 C20        -4.1298    2.1721   51.4515 C.3     1  ZINC000432253027    0.0700
     21 C21        -3.7750    2.7545   50.0819 C.3     1  ZINC000432253027    0.4300
     22 F22        -3.7964    1.7365   49.1225 F       1  ZINC000432253027   -0.1500
     23 F23        -4.7077    3.7391   49.7380 F       1  ZINC000432253027   -0.1700
     24 F24        -2.4966    3.3206   50.1328 F       1  ZINC000432253027   -0.1700
     25 C25        -7.3358    1.5403   58.9723 C.2     1  ZINC000432253027   -0.2500
     26 S26        -7.9499    0.1627   59.8842 S.3     1  ZINC000432253027    0.1600
     27 H27       -11.5205   -0.8349   56.0906 H       1  ZINC000432253027    0.1000
     28 H28        -9.9157   -1.4320   55.6045 H       1  ZINC000432253027    0.0600
     29 H29       -11.2332   -2.5841   55.9288 H       1  ZINC000432253027    0.0600
     30 H30       -10.8037   -4.2800   57.5311 H       1  ZINC000432253027    0.1400
     31 H31        -9.1523   -5.9956   58.1443 H       1  ZINC000432253027    0.1300
     32 H32        -6.9032   -5.3418   58.8924 H       1  ZINC000432253027    0.1300
     33 H33        -6.2878   -2.9660   59.0349 H       1  ZINC000432253027    0.1400
     34 H34        -6.8780    3.1072   56.9096 H       1  ZINC000432253027    0.1000
     35 H35        -5.5055    2.0124   56.6169 H       1  ZINC000432253027    0.1100
     36 H36        -6.1399    3.3991   53.8786 H       1  ZINC000432253027    0.1100
     37 H37        -5.0800    1.9992   54.1702 H       1  ZINC000432253027    0.1300
     38 H38        -3.9827    2.9323   52.2187 H       1  ZINC000432253027    0.1500
     39 H39        -3.4874    1.3165   51.6599 H       1  ZINC000432253027    0.1600
     40 H40        -7.1685    2.5336   59.3619 H       1  ZINC000432253027    0.1800
@<TRIPOS>BOND
     1     1     2    1
     2     1    27    1
     3     1    28    1
     4     1    29    1
     5     2     3    1
     6     3     8   ar
     7     3     4   ar
     8     4     5   ar
     9     4    30    1
    10     5     6   ar
    11     5    31    1
    12     6     7   ar
    13     6    32    1
    14     7     8   ar
    15     7    33    1
    16     8     9    1
    17     9    26    1
    18     9    10    2
    19    10    11    1
    20    11    12    1
    21    11    25    2
    22    12    13    1
    23    12    34    1
    24    12    35    1
    25    13    14    1
    26    14    15    1
    27    14    36    1
    28    14    37    1
    29    15    19    1
    30    15    16    2
    31    16    17    1
    32    17    18    2
    33    18    19    1
    34    19    20    1
    35    20    21    1
    36    20    38    1
    37    20    39    1
    38    21    22    1
    39    21    23    1
    40    21    24    1
    41    25    26    1
    42    25    40    1
@<TRIPOS>SUBSTRUCTURE
     1 ZINC000432253027        1 TEMP              0 ****  ****    0 ROOT


##########                                Name:    ZINC000463741321
##########                DOCK_Rotatable_Bonds:                   7
##########                         Heavy_Atoms:                  26
##########                    Molecular_Weight:             354.467
##########                DOCK_Rotatable_Bonds:                   7
##########                       Formal_Charge:         -6.4075e-07
##########                     HBond_Acceptors:                   4
##########                        HBond_Donors:                   1
##########                         Heavy_Atoms:                  26
##########                          Grid_Score:          -33.784531
##########                     Grid_vdw_energy:          -30.498112
##########                      Grid_es_energy:           -3.286418
##########           Internal_energy_repulsive:           13.291482

@<TRIPOS>MOLECULE
ZINC000463741321
 53 55 1 0 0
SMALL
USER_CHARGES


@<TRIPOS>ATOM
      1 C1         -9.8601    1.1169   65.6288 C.3     1  ZINC000463741321   -0.1500
      2 C2         -8.6443    1.2989   64.7178 C.3     1  ZINC000463741321   -0.1100
      3 H3         -8.2785    2.3223   64.8003 H       1  ZINC000463741321    0.1000
      4 C4         -7.5406    0.3272   65.1402 C.3     1  ZINC000463741321   -0.0900
      5 C5         -6.8589    0.8488   66.4067 C.3     1  ZINC000463741321   -0.0800
      6 C6         -5.7943    1.8464   66.0296 C.ar    1  ZINC000463741321   -0.1200
      7 C7         -4.5784    1.4081   65.5408 C.ar    1  ZINC000463741321   -0.0900
      8 C8         -3.6013    2.3231   65.1947 C.ar    1  ZINC000463741321   -0.1300
      9 C9         -3.8393    3.6772   65.3376 C.ar    1  ZINC000463741321   -0.1000
     10 C10        -5.0546    4.1180   65.8267 C.ar    1  ZINC000463741321   -0.1500
     11 C11        -6.0360    3.2030   66.1673 C.ar    1  ZINC000463741321    0.1000
     12 F12        -7.2243    3.6327   66.6455 F       1  ZINC000463741321   -0.1400
     13 C13        -9.0398    1.0203   63.2906 C.2     1  ZINC000463741321    0.5200
     14 O14       -10.0885    0.4603   63.0502 O.2     1  ZINC000463741321   -0.5300
     15 N15        -8.2283    1.3935   62.2813 N.am    1  ZINC000463741321   -0.7300
     16 C16        -8.6121    1.1212   60.8939 C.3     1  ZINC000463741321    0.1500
     17 H17        -9.6886    1.2504   60.7820 H       1  ZINC000463741321    0.1000
     18 C18        -7.8812    2.0912   59.9615 C.3     1  ZINC000463741321   -0.1300
     19 C19        -8.2413    1.7608   58.5104 C.3     1  ZINC000463741321   -0.1200
     20 C20        -7.8684    0.3061   58.2158 C.3     1  ZINC000463741321    0.0600
     21 N21        -8.5940   -0.5818   59.1332 N.3     1  ZINC000463741321   -0.4800
     22 C22        -8.3787   -1.9227   58.8068 C.ar    1  ZINC000463741321    0.1100
     23 C23        -9.4408   -2.7184   58.3963 C.ar    1  ZINC000463741321   -0.1700
     24 C24        -9.2244   -4.0437   58.0738 C.ar    1  ZINC000463741321   -0.0900
     25 C25        -7.9523   -4.5789   58.1597 C.ar    1  ZINC000463741321   -0.1500
     26 C26        -6.8927   -3.7897   58.5679 C.ar    1  ZINC000463741321   -0.0900
     27 C27        -7.1011   -2.4621   58.8865 C.ar    1  ZINC000463741321   -0.1400
     28 C28        -8.2294   -0.3154   60.5306 C.3     1  ZINC000463741321    0.0500
     29 H29       -10.2260    0.0934   65.5463 H       1  ZINC000463741321    0.0600
     30 H30        -9.5740    1.3184   66.6610 H       1  ZINC000463741321    0.0700
     31 H31       -10.6464    1.8092   65.3279 H       1  ZINC000463741321    0.0600
     32 H32        -7.9754   -0.6525   65.3388 H       1  ZINC000463741321    0.0700
     33 H33        -6.8052    0.2427   64.3400 H       1  ZINC000463741321    0.0700
     34 H34        -7.5990    1.3312   67.0452 H       1  ZINC000463741321    0.0800
     35 H35        -6.4034    0.0166   66.9432 H       1  ZINC000463741321    0.0800
     36 H36        -4.3911    0.3504   65.4294 H       1  ZINC000463741321    0.1300
     37 H37        -2.6513    1.9795   64.8128 H       1  ZINC000463741321    0.1300
     38 H38        -3.0752    4.3910   65.0673 H       1  ZINC000463741321    0.1300
     39 H39        -5.2400    5.1760   65.9389 H       1  ZINC000463741321    0.1400
     40 H40        -7.3903    1.8424   62.4735 H       1  ZINC000463741321    0.4000
     41 H41        -8.1846    3.1131   60.1886 H       1  ZINC000463741321    0.0700
     42 H42        -6.8049    1.9900   60.1018 H       1  ZINC000463741321    0.0600
     43 H43        -9.3119    1.8997   58.3605 H       1  ZINC000463741321    0.0800
     44 H44        -7.6907    2.4205   57.8396 H       1  ZINC000463741321    0.0800
     45 H45        -8.1367    0.0635   57.1876 H       1  ZINC000463741321    0.0900
     46 H46        -6.7955    0.1713   58.3525 H       1  ZINC000463741321    0.0500
     47 H47       -10.4347   -2.3011   58.3297 H       1  ZINC000463741321    0.1200
     48 H48       -10.0497   -4.6628   57.7546 H       1  ZINC000463741321    0.1200
     49 H49        -7.7859   -5.6159   57.9076 H       1  ZINC000463741321    0.1200
     50 H50        -5.9004   -4.2109   58.6340 H       1  ZINC000463741321    0.1200
     51 H51        -6.2732   -1.8462   59.2051 H       1  ZINC000463741321    0.1300
     52 H52        -7.1548   -0.4471   60.6570 H       1  ZINC000463741321    0.0500
     53 H53        -8.7596   -1.0094   61.1829 H       1  ZINC000463741321    0.0900
@<TRIPOS>BOND
     1     1     2    1
     2     1    29    1
     3     1    30    1
     4     1    31    1
     5     2     3    1
     6     2     4    1
     7     2    13    1
     8     4     5    1
     9     4    32    1
    10     4    33    1
    11     5     6    1
    12     5    34    1
    13     5    35    1
    14     6    11   ar
    15     6     7   ar
    16     7     8   ar
    17     7    36    1
    18     8     9   ar
    19     8    37    1
    20     9    10   ar
    21     9    38    1
    22    10    11   ar
    23    10    39    1
    24    11    12    1
    25    13    14    2
    26    13    15   am
    27    15    16    1
    28    15    40    1
    29    16    17    1
    30    16    28    1
    31    16    18    1
    32    18    19    1
    33    18    41    1
    34    18    42    1
    35    19    20    1
    36    19    43    1
    37    19    44    1
    38    20    21    1
    39    20    45    1
    40    20    46    1
    41    21    22    1
    42    21    28    1
    43    22    27   ar
    44    22    23   ar
    45    23    24   ar
    46    23    47    1
    47    24    25   ar
    48    24    48    1
    49    25    26   ar
    50    25    49    1
    51    26    27   ar
    52    26    50    1
    53    27    51    1
    54    28    52    1
    55    28    53    1
@<TRIPOS>SUBSTRUCTURE
     1 ZINC000463741321        1 TEMP              0 ****  ****    0 ROOT


##########                                Name:    ZINC000432058199
##########                DOCK_Rotatable_Bonds:                   5
##########                         Heavy_Atoms:                  30
##########                    Molecular_Weight:             406.441
##########                DOCK_Rotatable_Bonds:                   5
##########                       Formal_Charge:        -4.02331e-07
##########                     HBond_Acceptors:                   8
##########                        HBond_Donors:                   1
##########                         Heavy_Atoms:                  30
##########                          Grid_Score:          -33.775509
##########                     Grid_vdw_energy:          -32.422756
##########                      Grid_es_energy:           -1.352751
##########           Internal_energy_repulsive:           14.275116

@<TRIPOS>MOLECULE
ZINC000432058199
 52 55 1 0 0
SMALL
USER_CHARGES


@<TRIPOS>ATOM
      1 C1        -13.8514    1.0127   49.6441 C.3     1  ZINC000432058199    0.0300
      2 O2        -12.8041    1.0555   50.6155 O.3     1  ZINC000432058199   -0.3100
      3 C3        -13.0374    0.4351   51.8020 C.ar    1  ZINC000432058199    0.1300
      4 C4        -14.3406    0.2089   52.2223 C.ar    1  ZINC000432058199   -0.1900
      5 C5        -14.5824   -0.4219   53.4284 C.ar    1  ZINC000432058199   -0.0800
      6 C6        -13.5289   -0.8300   54.2215 C.ar    1  ZINC000432058199   -0.1100
      7 C7        -12.2173   -0.6069   53.8065 C.ar    1  ZINC000432058199    0.0100
      8 C8        -11.0827   -1.0453   54.6573 C.2     1  ZINC000432058199    0.2100
      9 N9         -9.8554   -0.5975   54.6055 N.2     1  ZINC000432058199   -0.3700
     10 O10        -9.1709   -1.1605   55.4335 O.3     1  ZINC000432058199    0.1200
     11 C11        -9.9086   -2.0444   56.1127 C.2     1  ZINC000432058199    0.1600
     12 C12        -9.4307   -2.9425   57.2245 C.3     1  ZINC000432058199    0.2500
     13 H13        -8.7593   -3.6985   56.8175 H       1  ZINC000432058199    0.1500
     14 C14       -10.6322   -3.6268   57.8795 C.3     1  ZINC000432058199   -0.1700
     15 N15        -8.7181   -2.1441   58.2251 N.am    1  ZINC000432058199   -0.5800
     16 C16        -7.4775   -2.4066   58.6514 C.2     1  ZINC000432058199    0.7000
     17 O17        -6.8090   -3.3396   58.2517 O.2     1  ZINC000432058199   -0.5100
     18 N18        -7.0526   -1.5225   59.5719 N.am    1  ZINC000432058199   -0.7200
     19 C19        -8.1516   -0.5623   59.7728 C.3     1  ZINC000432058199    0.1400
     20 H20        -8.5020   -0.5908   60.8046 H       1  ZINC000432058199    0.1400
     21 C21        -7.7131    0.8309   59.4018 C.ar    1  ZINC000432058199   -0.1000
     22 C22        -7.9917    1.8906   60.2447 C.ar    1  ZINC000432058199   -0.1000
     23 C23        -7.5895    3.1687   59.9043 C.ar    1  ZINC000432058199   -0.0800
     24 C24        -7.8936    4.3240   60.8228 C.3     1  ZINC000432058199   -0.1200
     25 C25        -6.9079    3.3868   58.7216 C.ar    1  ZINC000432058199   -0.1100
     26 C26        -6.6289    2.3270   57.8790 C.ar    1  ZINC000432058199   -0.0800
     27 C27        -5.8863    2.5649   56.5894 C.3     1  ZINC000432058199   -0.1200
     28 C28        -7.0274    1.0484   58.2214 C.ar    1  ZINC000432058199   -0.1000
     29 C29        -9.2293   -1.0512   58.8255 C.2     1  ZINC000432058199    0.5300
     30 O30       -10.3253   -0.5639   58.6489 O.2     1  ZINC000432058199   -0.4500
     31 N31       -11.1264   -1.9783   55.6349 N.2     1  ZINC000432058199   -0.4500
     32 C32       -11.9742    0.0236   52.5892 C.ar    1  ZINC000432058199   -0.1200
     33 H33       -13.5360    1.5439   48.7461 H       1  ZINC000432058199    0.1000
     34 H34       -14.0725   -0.0249   49.3937 H       1  ZINC000432058199    0.0600
     35 H35       -14.7446    1.4864   50.0517 H       1  ZINC000432058199    0.0600
     36 H36       -15.1682    0.5267   51.6054 H       1  ZINC000432058199    0.1400
     37 H37       -15.5983   -0.5954   53.7514 H       1  ZINC000432058199    0.1400
     38 H38       -13.7210   -1.3219   55.1636 H       1  ZINC000432058199    0.1400
     39 H39       -11.3037   -2.8708   58.2864 H       1  ZINC000432058199    0.0900
     40 H40       -11.1624   -4.2208   57.1350 H       1  ZINC000432058199    0.0900
     41 H41       -10.2864   -4.2764   58.6835 H       1  ZINC000432058199    0.0900
     42 H42        -6.1907   -1.5183   60.0171 H       1  ZINC000432058199    0.4500
     43 H43        -8.5238    1.7201   61.1688 H       1  ZINC000432058199    0.1200
     44 H44        -7.0742    4.4511   61.5304 H       1  ZINC000432058199    0.0700
     45 H45        -8.0106    5.2344   60.2351 H       1  ZINC000432058199    0.0700
     46 H46        -8.8159    4.1221   61.3675 H       1  ZINC000432058199    0.0700
     47 H47        -6.5937    4.3852   58.4557 H       1  ZINC000432058199    0.1300
     48 H48        -4.8147    2.4707   56.7646 H       1  ZINC000432058199    0.0700
     49 H49        -6.1995    1.8291   55.8488 H       1  ZINC000432058199    0.0700
     50 H50        -6.1078    3.5670   56.2222 H       1  ZINC000432058199    0.0700
     51 H51        -6.8095    0.2204   57.5631 H       1  ZINC000432058199    0.1300
     52 H52       -10.9595    0.1986   52.2633 H       1  ZINC000432058199    0.1400
@<TRIPOS>BOND
     1     1     2    1
     2     1    33    1
     3     1    34    1
     4     1    35    1
     5     2     3    1
     6     3    32   ar
     7     3     4   ar
     8     4     5   ar
     9     4    36    1
    10     5     6   ar
    11     5    37    1
    12     6     7   ar
    13     6    38    1
    14     7     8    1
    15     7    32   ar
    16     8    31    1
    17     8     9    2
    18     9    10    1
    19    10    11    1
    20    11    12    1
    21    11    31    2
    22    12    13    1
    23    12    14    1
    24    12    15    1
    25    14    39    1
    26    14    40    1
    27    14    41    1
    28    15    29   am
    29    15    16   am
    30    16    17    2
    31    16    18   am
    32    18    19    1
    33    18    42    1
    34    19    20    1
    35    19    21    1
    36    19    29    1
    37    21    28   ar
    38    21    22   ar
    39    22    23   ar
    40    22    43    1
    41    23    24    1
    42    23    25   ar
    43    24    44    1
    44    24    45    1
    45    24    46    1
    46    25    26   ar
    47    25    47    1
    48    26    27    1
    49    26    28   ar
    50    27    48    1
    51    27    49    1
    52    27    50    1
    53    28    51    1
    54    29    30    2
    55    32    52    1
@<TRIPOS>SUBSTRUCTURE
     1 ZINC000432058199        1 TEMP              0 ****  ****    0 ROOT


##########                                Name:    ZINC000668548901
##########                DOCK_Rotatable_Bonds:                   9
##########                         Heavy_Atoms:                  26
##########                    Molecular_Weight:             374.464
##########                DOCK_Rotatable_Bonds:                   9
##########                       Formal_Charge:         3.53903e-07
##########                     HBond_Acceptors:                   8
##########                        HBond_Donors:                   3
##########                         Heavy_Atoms:                  26
##########                          Grid_Score:          -33.774754
##########                     Grid_vdw_energy:          -27.799715
##########                      Grid_es_energy:           -5.975039
##########           Internal_energy_repulsive:           17.489582

@<TRIPOS>MOLECULE
ZINC000668548901
 48 50 1 0 0
SMALL
USER_CHARGES


@<TRIPOS>ATOM
      1 O1         -9.1495   -0.4154   62.2683 O.2     1  ZINC000668548901   -0.5700
      2 C2         -8.3154    0.4542   62.1064 C.2     1  ZINC000668548901    0.7100
      3 N3         -7.7212    0.6029   60.9059 N.am    1  ZINC000668548901   -0.6800
      4 C4         -8.0594   -0.2448   59.8501 C.ar    1  ZINC000668548901    0.2200
      5 C5         -7.2594   -1.3432   59.5304 C.ar    1  ZINC000668548901   -0.1700
      6 C6         -7.6240   -2.1591   58.4809 C.ar    1  ZINC000668548901    0.1200
      7 N7         -8.7146   -1.9146   57.7785 N.ar    1  ZINC000668548901   -0.4300
      8 C8         -9.5022   -0.8828   58.0481 C.ar    1  ZINC000668548901    0.1100
      9 S9        -10.9451   -0.6093   57.0745 S.3     1  ZINC000668548901    0.0900
     10 C10       -12.1002   -1.7578   57.7463 C.ar    1  ZINC000668548901    0.0900
     11 C11       -12.0210   -2.1091   59.0900 C.ar    1  ZINC000668548901   -0.1500
     12 C12       -12.9346   -3.0116   59.6043 C.ar    1  ZINC000668548901   -0.0700
     13 C13       -13.9003   -3.5343   58.7544 C.ar    1  ZINC000668548901   -0.1700
     14 C14       -13.9206   -3.1413   57.4307 C.ar    1  ZINC000668548901    0.1000
     15 N15       -13.0397   -2.2748   56.9686 N.ar    1  ZINC000668548901   -0.4200
     16 C16        -9.2048   -0.0193   59.0939 C.ar    1  ZINC000668548901   -0.1800
     17 N17        -7.9888    1.2729   63.1260 N.am    1  ZINC000668548901   -0.7200
     18 C18        -8.6347    1.1112   64.4309 C.3     1  ZINC000668548901    0.1700
     19 H19        -8.1827    1.7972   65.1475 H       1  ZINC000668548901    0.1000
     20 C20        -8.4505   -0.3280   64.9164 C.3     1  ZINC000668548901    0.0600
     21 O21        -8.1783   -0.3263   66.3192 O.3     1  ZINC000668548901   -0.5700
     22 C22       -10.1280    1.4189   64.3024 C.3     1  ZINC000668548901   -0.1300
     23 H23       -10.6185    0.6181   63.7491 H       1  ZINC000668548901    0.1000
     24 C24       -10.3153    2.7447   63.5584 C.3     1  ZINC000668548901   -0.1200
     25 C25       -11.8088    3.0805   63.5044 C.3     1  ZINC000668548901   -0.1600
     26 C26       -12.3645    3.1308   64.9300 C.3     1  ZINC000668548901    0.0600
     27 O27       -12.1301    1.8777   65.5756 O.3     1  ZINC000668548901   -0.3800
     28 C28       -10.7489    1.5318   65.6973 C.3     1  ZINC000668548901    0.0700
     29 H29        -7.0586    1.2993   60.7756 H       1  ZINC000668548901    0.4100
     30 H30        -6.3648   -1.5511   60.0987 H       1  ZINC000668548901    0.1500
     31 H31        -7.0085   -3.0103   58.2296 H       1  ZINC000668548901    0.1600
     32 H32       -11.2566   -1.6834   59.7229 H       1  ZINC000668548901    0.1400
     33 H33       -12.8975   -3.3034   60.6435 H       1  ZINC000668548901    0.1400
     34 H34       -14.6278   -4.2413   59.1247 H       1  ZINC000668548901    0.1400
     35 H35       -14.6697   -3.5457   56.7661 H       1  ZINC000668548901    0.1600
     36 H36        -9.8483    0.8204   59.3112 H       1  ZINC000668548901    0.1400
     37 H37        -7.3262    1.9693   62.9958 H       1  ZINC000668548901    0.4000
     38 H38        -9.3607   -0.8958   64.7235 H       1  ZINC000668548901    0.0500
     39 H39        -7.6166   -0.7867   64.3850 H       1  ZINC000668548901    0.0600
     40 H40        -8.8886    0.0494   66.8573 H       1  ZINC000668548901    0.3800
     41 H41        -9.7822    3.5366   64.0846 H       1  ZINC000668548901    0.0700
     42 H42        -9.9255    2.6521   62.5447 H       1  ZINC000668548901    0.0700
     43 H43       -11.9471    4.0498   63.0252 H       1  ZINC000668548901    0.0800
     44 H44       -12.3343    2.3136   62.9354 H       1  ZINC000668548901    0.0700
     45 H45       -11.8668    3.9251   65.4864 H       1  ZINC000668548901    0.0500
     46 H46       -13.4361    3.3273   64.8957 H       1  ZINC000668548901    0.1000
     47 H47       -10.6575    0.5774   66.2158 H       1  ZINC000668548901    0.1000
     48 H48       -10.2291    2.3046   66.2635 H       1  ZINC000668548901    0.0500
@<TRIPOS>BOND
     1     1     2    2
     2     2     3   am
     3     2    17   am
     4     3     4    1
     5     3    29    1
     6     4    16   ar
     7     4     5   ar
     8     5     6   ar
     9     5    30    1
    10     6     7   ar
    11     6    31    1
    12     7     8   ar
    13     8     9    1
    14     8    16   ar
    15     9    10    1
    16    10    15   ar
    17    10    11   ar
    18    11    12   ar
    19    11    32    1
    20    12    13   ar
    21    12    33    1
    22    13    14   ar
    23    13    34    1
    24    14    15   ar
    25    14    35    1
    26    16    36    1
    27    17    18    1
    28    17    37    1
    29    18    19    1
    30    18    20    1
    31    18    22    1
    32    20    21    1
    33    20    38    1
    34    20    39    1
    35    21    40    1
    36    22    23    1
    37    22    28    1
    38    22    24    1
    39    24    25    1
    40    24    41    1
    41    24    42    1
    42    25    26    1
    43    25    43    1
    44    25    44    1
    45    26    27    1
    46    26    45    1
    47    26    46    1
    48    27    28    1
    49    28    47    1
    50    28    48    1
@<TRIPOS>SUBSTRUCTURE
     1 ZINC000668548901        1 TEMP              0 ****  ****    0 ROOT


##########                                Name:    ZINC001124460178
##########                DOCK_Rotatable_Bonds:                  12
##########                         Heavy_Atoms:                  22
##########                    Molecular_Weight:             328.479
##########                DOCK_Rotatable_Bonds:                  12
##########                       Formal_Charge:          -0.0100003
##########                     HBond_Acceptors:                   7
##########                        HBond_Donors:                   2
##########                         Heavy_Atoms:                  22
##########                          Grid_Score:          -33.664211
##########                     Grid_vdw_energy:          -32.452038
##########                      Grid_es_energy:           -1.212172
##########           Internal_energy_repulsive:           14.439561

@<TRIPOS>MOLECULE
ZINC001124460178
 50 50 1 0 0
SMALL
USER_CHARGES


@<TRIPOS>ATOM
      1 C1         -0.9467   -0.6589   47.8744 C.3     1  ZINC001124460178   -0.0700
      2 C2         -1.7670    0.5629   47.5495 C.2     1  ZINC001124460178    0.3100
      3 N3         -1.7062    1.1195   46.3750 N.2     1  ZINC001124460178   -0.5000
      4 S4         -2.7698    2.4437   46.4359 S.3     1  ZINC001124460178    0.1800
      5 C5         -3.2426    2.1651   48.0692 C.2     1  ZINC001124460178    0.3400
      6 N6         -4.1385    2.9008   48.8237 N.pl3   1  ZINC001124460178   -0.6600
      7 C7         -3.9957    2.9579   50.2806 C.3     1  ZINC001124460178    0.0900
      8 C8         -4.8428    1.8557   50.9196 C.3     1  ZINC001124460178    0.0800
      9 H9         -4.7032    0.9250   50.3696 H       1  ZINC001124460178    0.1200
     10 O10        -4.4388    1.6715   52.2778 O.3     1  ZINC001124460178   -0.5500
     11 C11        -6.3186    2.2571   50.8765 C.3     1  ZINC001124460178    0.0900
     12 N12        -7.1292    1.2046   51.4943 N.am    1  ZINC001124460178   -0.6100
     13 C13        -7.4132   -0.0291   50.7572 C.3     1  ZINC001124460178    0.0800
     14 C14        -7.6138    1.3716   52.7408 C.2     1  ZINC001124460178    0.5100
     15 O15        -7.3800    2.3937   53.3504 O.2     1  ZINC001124460178   -0.5400
     16 C16        -8.4461    0.2883   53.3770 C.3     1  ZINC001124460178   -0.1400
     17 C17        -8.4663    0.4854   54.8942 C.3     1  ZINC001124460178   -0.1100
     18 C18        -9.3648   -0.5748   55.5343 C.3     1  ZINC001124460178   -0.1200
     19 C19        -9.2872   -0.4568   57.0577 C.3     1  ZINC001124460178   -0.1200
     20 C20       -10.2215   -1.4858   57.6973 C.3     1  ZINC001124460178   -0.1000
     21 C21        -9.6448   -2.8893   57.5017 C.3     1  ZINC001124460178   -0.1500
     22 C22       -10.3551   -1.1931   59.1930 C.3     1  ZINC001124460178   -0.1500
     23 N23        -2.5697    1.0965   48.4409 N.2     1  ZINC001124460178   -0.5800
     24 H24        -1.5144   -1.5549   47.6234 H       1  ZINC001124460178    0.0900
     25 H25        -0.0228   -0.6404   47.2964 H       1  ZINC001124460178    0.0900
     26 H26        -0.7098   -0.6651   48.9383 H       1  ZINC001124460178    0.0900
     27 H27        -4.8615    3.3789   48.3881 H       1  ZINC001124460178    0.4200
     28 H28        -2.9492    2.8137   50.5491 H       1  ZINC001124460178    0.0800
     29 H29        -4.3326    3.9300   50.6408 H       1  ZINC001124460178    0.0900
     30 H30        -3.5574    1.2864   52.3773 H       1  ZINC001124460178    0.3800
     31 H31        -6.4575    3.1902   51.4224 H       1  ZINC001124460178    0.0900
     32 H32        -6.6281    2.3928   49.8403 H       1  ZINC001124460178    0.1000
     33 H33        -6.6333   -0.7625   50.9622 H       1  ZINC001124460178    0.0600
     34 H34        -8.3779   -0.4268   51.0724 H       1  ZINC001124460178    0.0800
     35 H35        -7.4398    0.1841   49.6886 H       1  ZINC001124460178    0.0800
     36 H36        -9.4642    0.3381   52.9907 H       1  ZINC001124460178    0.0900
     37 H37        -8.0158   -0.6854   53.1428 H       1  ZINC001124460178    0.0900
     38 H38        -7.4539    0.3887   55.2866 H       1  ZINC001124460178    0.0700
     39 H39        -8.8527    1.4777   55.1266 H       1  ZINC001124460178    0.0700
     40 H40       -10.3942   -0.4223   55.2100 H       1  ZINC001124460178    0.0600
     41 H41        -9.0308   -1.5664   55.2292 H       1  ZINC001124460178    0.0600
     42 H42        -8.2641   -0.6422   57.3849 H       1  ZINC001124460178    0.0600
     43 H43        -9.5893    0.5459   57.3604 H       1  ZINC001124460178    0.0600
     44 H44       -11.2030   -1.4274   57.2265 H       1  ZINC001124460178    0.0700
     45 H45        -8.6634   -2.9477   57.9724 H       1  ZINC001124460178    0.0500
     46 H46       -10.3105   -3.6224   57.9573 H       1  ZINC001124460178    0.0500
     47 H47        -9.5497   -3.0978   56.4361 H       1  ZINC001124460178    0.0500
     48 H48       -10.7660   -0.1932   59.3323 H       1  ZINC001124460178    0.0600
     49 H49       -11.0208   -1.9261   59.6487 H       1  ZINC001124460178    0.0500
     50 H50        -9.3738   -1.2515   59.6637 H       1  ZINC001124460178    0.0500
@<TRIPOS>BOND
     1     1     2    1
     2     1    24    1
     3     1    25    1
     4     1    26    1
     5     2    23    1
     6     2     3    2
     7     3     4    1
     8     4     5    1
     9     5     6    1
    10     5    23    2
    11     6     7    1
    12     6    27    1
    13     7     8    1
    14     7    28    1
    15     7    29    1
    16     8     9    1
    17     8    10    1
    18     8    11    1
    19    10    30    1
    20    11    12    1
    21    11    31    1
    22    11    32    1
    23    12    13    1
    24    12    14   am
    25    13    33    1
    26    13    34    1
    27    13    35    1
    28    14    15    2
    29    14    16    1
    30    16    17    1
    31    16    36    1
    32    16    37    1
    33    17    18    1
    34    17    38    1
    35    17    39    1
    36    18    19    1
    37    18    40    1
    38    18    41    1
    39    19    20    1
    40    19    42    1
    41    19    43    1
    42    20    21    1
    43    20    22    1
    44    20    44    1
    45    21    45    1
    46    21    46    1
    47    21    47    1
    48    22    48    1
    49    22    49    1
    50    22    50    1
@<TRIPOS>SUBSTRUCTURE
     1 ZINC001124460178        1 TEMP              0 ****  ****    0 ROOT


##########                                Name:    ZINC000185180600
##########                DOCK_Rotatable_Bonds:                   7
##########                         Heavy_Atoms:                  26
##########                    Molecular_Weight:             395.953
##########                DOCK_Rotatable_Bonds:                   7
##########                       Formal_Charge:          0.00999977
##########                     HBond_Acceptors:                   7
##########                        HBond_Donors:                   0
##########                         Heavy_Atoms:                  26
##########                          Grid_Score:          -33.663284
##########                     Grid_vdw_energy:          -31.489887
##########                      Grid_es_energy:           -2.173395
##########           Internal_energy_repulsive:           15.727210

@<TRIPOS>MOLECULE
ZINC000185180600
 52 53 1 0 0
SMALL
USER_CHARGES


@<TRIPOS>ATOM
      1 C1         -5.6524    3.0072   49.6053 C.3     1  ZINC000185180600   -0.1500
      2 C2         -5.8128    2.5550   51.0581 C.3     1  ZINC000185180600   -0.0900
      3 C3         -6.5250    1.2014   51.0952 C.3     1  ZINC000185180600   -0.1500
      4 C4         -4.4333    2.4233   51.7066 C.3     1  ZINC000185180600   -0.1300
      5 C5         -3.9991    3.7813   52.2618 C.3     1  ZINC000185180600    0.1300
      6 H6         -4.5743    4.5717   51.7797 H       1  ZINC000185180600    0.1100
      7 C7         -2.5093    3.9929   51.9846 C.3     1  ZINC000185180600   -0.1600
      8 N8         -4.2368    3.8165   53.7070 N.am    1  ZINC000185180600   -0.6000
      9 C9         -3.2817    3.1865   54.6220 C.3     1  ZINC000185180600    0.0700
     10 C10        -5.3339    4.4286   54.1948 C.2     1  ZINC000185180600    0.5400
     11 O11        -6.1254    4.9489   53.4373 O.2     1  ZINC000185180600   -0.5300
     12 C12        -5.5775    4.4664   55.6815 C.3     1  ZINC000185180600   -0.5000
     13 S13        -6.3105    2.8950   56.2144 S.o     1  ZINC000185180600    1.3200
     14 O14        -7.5822    2.7335   55.6013 O.2     1  ZINC000185180600   -0.8000
     15 C15        -6.5258    3.1301   58.0002 C.3     1  ZINC000185180600   -0.3900
     16 C16        -7.1357    1.8896   58.6002 C.2     1  ZINC000185180600    0.1000
     17 N17        -7.1780    0.7075   58.0399 N.2     1  ZINC000185180600   -0.2800
     18 N18        -7.8257   -0.1708   58.9184 N.pl3   1  ZINC000185180600   -0.3200
     19 C19        -8.0734   -1.5320   58.6910 C.ar    1  ZINC000185180600    0.1700
     20 C20        -7.0136   -2.4133   58.5254 C.ar    1  ZINC000185180600   -0.1300
     21 C21        -7.2600   -3.7536   58.3014 C.ar    1  ZINC000185180600   -0.0800
     22 C22        -8.5622   -4.2183   58.2415 C.ar    1  ZINC000185180600   -0.0500
     23 Cl23       -8.8688   -5.9036   57.9599 Cl      1  ZINC000185180600   -0.0600
     24 C24        -9.6203   -3.3417   58.4064 C.ar    1  ZINC000185180600   -0.0800
     25 C25        -9.3787   -2.0015   58.6366 C.ar    1  ZINC000185180600   -0.1100
     26 C26        -8.1698    0.5268   60.0244 C.2     1  ZINC000185180600    0.0600
     27 C27        -7.7488    1.8017   59.8548 C.2     1  ZINC000185180600   -0.2500
     28 H28        -6.6352    3.1010   49.1432 H       1  ZINC000185180600    0.0500
     29 H29        -5.1450    3.9715   49.5788 H       1  ZINC000185180600    0.0600
     30 H30        -5.0627    2.2712   49.0587 H       1  ZINC000185180600    0.0500
     31 H31        -6.4025    3.2909   51.6047 H       1  ZINC000185180600    0.0700
     32 H32        -7.5382    1.3132   50.7090 H       1  ZINC000185180600    0.0500
     33 H33        -5.9786    0.4863   50.4802 H       1  ZINC000185180600    0.0500
     34 H34        -6.5658    0.8403   52.1228 H       1  ZINC000185180600    0.0500
     35 H35        -4.4812    1.6974   52.5182 H       1  ZINC000185180600    0.0700
     36 H36        -3.7120    2.0881   50.9613 H       1  ZINC000185180600    0.0800
     37 H37        -1.9342    3.2024   52.4668 H       1  ZINC000185180600    0.0600
     38 H38        -2.3326    3.9667   50.9094 H       1  ZINC000185180600    0.0700
     39 H39        -2.2000    4.9603   52.3803 H       1  ZINC000185180600    0.0600
     40 H40        -2.5236    3.9136   54.9131 H       1  ZINC000185180600    0.0600
     41 H41        -3.8071    2.8343   55.5097 H       1  ZINC000185180600    0.0700
     42 H42        -2.8038    2.3429   54.1240 H       1  ZINC000185180600    0.0800
     43 H43        -4.6316    4.6207   56.2008 H       1  ZINC000185180600    0.1500
     44 H44        -6.2590    5.2837   55.9173 H       1  ZINC000185180600    0.1200
     45 H45        -5.5562    3.3178   58.4615 H       1  ZINC000185180600    0.1400
     46 H46        -7.1836    3.9808   58.1781 H       1  ZINC000185180600    0.1000
     47 H47        -5.9971   -2.0510   58.5713 H       1  ZINC000185180600    0.1400
     48 H48        -6.4359   -4.4396   58.1725 H       1  ZINC000185180600    0.1500
     49 H49       -10.6357   -3.7066   58.3588 H       1  ZINC000185180600    0.1400
     50 H50       -10.2048   -1.3178   58.7652 H       1  ZINC000185180600    0.1500
     51 H51        -8.6841    0.1356   60.8900 H       1  ZINC000185180600    0.1800
     52 H52        -7.8713    2.6103   60.5601 H       1  ZINC000185180600    0.1700
@<TRIPOS>BOND
     1     1     2    1
     2     1    28    1
     3     1    29    1
     4     1    30    1
     5     2     3    1
     6     2     4    1
     7     2    31    1
     8     3    32    1
     9     3    33    1
    10     3    34    1
    11     4     5    1
    12     4    35    1
    13     4    36    1
    14     5     6    1
    15     5     7    1
    16     5     8    1
    17     7    37    1
    18     7    38    1
    19     7    39    1
    20     8     9    1
    21     8    10   am
    22     9    40    1
    23     9    41    1
    24     9    42    1
    25    10    11    2
    26    10    12    1
    27    12    13    1
    28    12    43    1
    29    12    44    1
    30    13    14    2
    31    13    15    1
    32    15    16    1
    33    15    45    1
    34    15    46    1
    35    16    27    1
    36    16    17    2
    37    17    18    1
    38    18    19    1
    39    18    26    1
    40    19    25   ar
    41    19    20   ar
    42    20    21   ar
    43    20    47    1
    44    21    22   ar
    45    21    48    1
    46    22    23    1
    47    22    24   ar
    48    24    25   ar
    49    24    49    1
    50    25    50    1
    51    26    27    2
    52    26    51    1
    53    27    52    1
@<TRIPOS>SUBSTRUCTURE
     1 ZINC000185180600        1 TEMP              0 ****  ****    0 ROOT


##########                                Name:    ZINC000269356812
##########                DOCK_Rotatable_Bonds:                  10
##########                         Heavy_Atoms:                  25
##########                    Molecular_Weight:             387.431
##########                DOCK_Rotatable_Bonds:                  10
##########                       Formal_Charge:          0.00999978
##########                     HBond_Acceptors:                  10
##########                        HBond_Donors:                   3
##########                         Heavy_Atoms:                  25
##########                          Grid_Score:          -33.612659
##########                     Grid_vdw_energy:          -30.934093
##########                      Grid_es_energy:           -2.678567
##########           Internal_energy_repulsive:            6.167870

@<TRIPOS>MOLECULE
ZINC000269356812
 40 41 1 0 0
SMALL
USER_CHARGES


@<TRIPOS>ATOM
      1 C1          0.8193    1.8783   49.0909 C.3     1  ZINC000269356812   -0.1400
      2 C2         -0.6281    1.4004   49.2234 C.3     1  ZINC000269356812    0.2000
      3 O3         -0.7318    0.4945   50.3237 O.3     1  ZINC000269356812   -0.5400
      4 C4         -1.5422    2.6033   49.4652 C.3     1  ZINC000269356812    0.0900
      5 N5         -2.8220    2.1425   50.0092 N.am    1  ZINC000269356812   -0.6900
      6 C6         -3.9723    2.7149   49.6024 C.2     1  ZINC000269356812    0.5100
      7 O7         -3.9479    3.6130   48.7865 O.2     1  ZINC000269356812   -0.5100
      8 C8         -5.2770    2.2440   50.1556 C.2     1  ZINC000269356812    0.5100
      9 O9         -6.3092    2.4839   49.5635 O.2     1  ZINC000269356812   -0.4900
     10 N10        -5.3084    1.5529   51.3122 N.am    1  ZINC000269356812   -0.6400
     11 C11        -6.5309    1.1117   51.8306 C.ar    1  ZINC000269356812    0.0900
     12 C12        -7.2395    0.0916   51.1963 C.ar    1  ZINC000269356812   -0.0600
     13 C13        -8.4426   -0.3132   51.7435 C.ar    1  ZINC000269356812   -0.1200
     14 C14        -8.9040    0.3063   52.9011 C.ar    1  ZINC000269356812    0.1000
     15 S15       -10.4357   -0.2006   53.6092 S.3     1  ZINC000269356812   -0.0600
     16 C16        -9.9278   -0.9757   55.1686 C.3     1  ZINC000269356812    0.2900
     17 F17        -9.8715   -0.0054   56.1749 F       1  ZINC000269356812   -0.1700
     18 F18       -10.8547   -1.9618   55.5229 F       1  ZINC000269356812   -0.1700
     19 N19        -8.2042    1.2723   53.4769 N.ar    1  ZINC000269356812   -0.4600
     20 C20        -7.0500    1.6796   52.9851 C.ar    1  ZINC000269356812    0.1100
     21 C21        -1.0439    0.7003   47.9554 C.2     1  ZINC000269356812   -0.2300
     22 C22        -1.2751    1.2997   46.7864 C.2     1  ZINC000269356812   -0.1100
     23 C23        -1.6463    0.4500   45.7585 C.2     1  ZINC000269356812   -0.1400
     24 C24        -1.7164   -0.8394   46.0928 C.2     1  ZINC000269356812   -0.2000
     25 S25        -1.2913   -1.0330   47.7885 S.3     1  ZINC000269356812    0.1100
     26 H26         1.4706    1.0213   48.9186 H       1  ZINC000269356812    0.0800
     27 H27         0.8985    2.5692   48.2516 H       1  ZINC000269356812    0.0800
     28 H28         1.1203    2.3847   50.0080 H       1  ZINC000269356812    0.0700
     29 H29        -0.1420   -0.2692   50.2613 H       1  ZINC000269356812    0.3800
     30 H30        -1.0691    3.2822   50.1747 H       1  ZINC000269356812    0.0900
     31 H31        -1.7141    3.1241   48.5232 H       1  ZINC000269356812    0.0900
     32 H32        -2.8415    1.4255   50.6622 H       1  ZINC000269356812    0.4200
     33 H33        -4.4835    1.3614   51.7853 H       1  ZINC000269356812    0.4300
     34 H34        -6.8573   -0.3712   50.2984 H       1  ZINC000269356812    0.1600
     35 H35        -9.0177   -1.1001   51.2782 H       1  ZINC000269356812    0.1500
     36 H36        -8.9441   -1.4289   55.0455 H       1  ZINC000269356812    0.1500
     37 H37        -6.5073    2.4703   53.4819 H       1  ZINC000269356812    0.1700
     38 H38        -1.1805    2.3671   46.6520 H       1  ZINC000269356812    0.1500
     39 H39        -1.8630    0.8043   44.7615 H       1  ZINC000269356812    0.1400
     40 H40        -1.9889   -1.6421   45.4236 H       1  ZINC000269356812    0.1700
@<TRIPOS>BOND
     1     1     2    1
     2     1    26    1
     3     1    27    1
     4     1    28    1
     5     2     3    1
     6     2     4    1
     7     2    21    1
     8     3    29    1
     9     4     5    1
    10     4    30    1
    11     4    31    1
    12     5     6   am
    13     5    32    1
    14     6     7    2
    15     6     8    1
    16     8     9    2
    17     8    10   am
    18    10    11    1
    19    10    33    1
    20    11    20   ar
    21    11    12   ar
    22    12    13   ar
    23    12    34    1
    24    13    14   ar
    25    13    35    1
    26    14    15    1
    27    14    19   ar
    28    15    16    1
    29    16    17    1
    30    16    18    1
    31    16    36    1
    32    19    20   ar
    33    20    37    1
    34    21    25    1
    35    21    22    2
    36    22    23    1
    37    22    38    1
    38    23    24    2
    39    23    39    1
    40    24    25    1
    41    24    40    1
@<TRIPOS>SUBSTRUCTURE
     1 ZINC000269356812        1 TEMP              0 ****  ****    0 ROOT


##########                                Name:    ZINC000426567005
##########                DOCK_Rotatable_Bonds:                   9
##########                         Heavy_Atoms:                  31
##########                    Molecular_Weight:             417.467
##########                DOCK_Rotatable_Bonds:                   9
##########                       Formal_Charge:        -2.23517e-07
##########                     HBond_Acceptors:                   8
##########                        HBond_Donors:                   4
##########                         Heavy_Atoms:                  31
##########                          Grid_Score:          -33.551579
##########                     Grid_vdw_energy:          -33.060013
##########                      Grid_es_energy:           -0.491566
##########           Internal_energy_repulsive:           15.409118

@<TRIPOS>MOLECULE
ZINC000426567005
 54 57 1 0 0
SMALL
USER_CHARGES


@<TRIPOS>ATOM
      1 O1         -7.3909    3.1221   49.9152 O.2     1  ZINC000426567005   -0.4900
      2 C2         -7.2054    2.1864   50.6659 C.2     1  ZINC000426567005    0.5200
      3 N3         -6.0090    1.5663   50.6869 N.am    1  ZINC000426567005   -0.6000
      4 C4         -4.9825    1.9974   49.8393 C.2     1  ZINC000426567005    0.3000
      5 N5         -5.0713    2.9546   48.9453 N.2     1  ZINC000426567005   -0.3100
      6 N6         -3.8289    3.0750   48.3097 N.pl3   1  ZINC000426567005   -0.4600
      7 C7         -2.9929    2.1624   48.8487 C.2     1  ZINC000426567005    0.1100
      8 C8         -1.5528    1.9419   48.4634 C.3     1  ZINC000426567005   -0.0300
      9 C9         -1.1789    0.4448   48.5973 C.3     1  ZINC000426567005   -0.1200
     10 C10         0.0268    0.3063   47.6350 C.3     1  ZINC000426567005   -0.1300
     11 C11        -0.3362    1.2126   46.4406 C.3     1  ZINC000426567005   -0.1300
     12 C12        -1.3406    2.2526   46.9673 C.3     1  ZINC000426567005   -0.1200
     13 C13        -3.6749    1.4858   49.8002 C.2     1  ZINC000426567005   -0.2600
     14 C14        -8.3003    1.7266   51.5700 C.2     1  ZINC000426567005    0.5200
     15 O15        -9.3009    2.4006   51.7031 O.2     1  ZINC000426567005   -0.4900
     16 N16        -8.1779    0.5629   52.2389 N.am    1  ZINC000426567005   -0.6400
     17 C17        -9.1995    0.1338   53.0825 C.ar    1  ZINC000426567005    0.1700
     18 C18       -10.4439   -0.1966   52.5540 C.ar    1  ZINC000426567005   -0.1300
     19 C19       -11.4558   -0.6211   53.3851 C.ar    1  ZINC000426567005   -0.0300
     20 C20       -11.2323   -0.7206   54.7613 C.ar    1  ZINC000426567005   -0.1500
     21 C21       -12.3147   -1.1758   55.6552 C.2     1  ZINC000426567005    0.5600
     22 O22       -12.0658   -1.9291   56.5766 O.2     1  ZINC000426567005   -0.5100
     23 N23       -13.5791   -0.7564   55.4503 N.am    1  ZINC000426567005   -0.6700
     24 C24       -14.6048   -1.1878   56.2974 C.ar    1  ZINC000426567005    0.1400
     25 C25       -14.6716   -0.7202   57.6035 C.ar    1  ZINC000426567005   -0.1500
     26 C26       -15.6862   -1.1477   58.4374 C.ar    1  ZINC000426567005   -0.1000
     27 C27       -16.6348   -2.0404   57.9732 C.ar    1  ZINC000426567005   -0.1300
     28 C28       -16.5709   -2.5082   56.6734 C.ar    1  ZINC000426567005   -0.1000
     29 C29       -15.5623   -2.0802   55.8327 C.ar    1  ZINC000426567005   -0.1200
     30 C30        -9.9815   -0.3885   55.2889 C.ar    1  ZINC000426567005   -0.0600
     31 C31        -8.9722    0.0308   54.4518 C.ar    1  ZINC000426567005   -0.1400
     32 H32        -5.8594    0.8212   51.2898 H       1  ZINC000426567005    0.4300
     33 H33        -3.6078    3.7043   47.6054 H       1  ZINC000426567005    0.4400
     34 H34        -0.8959    2.5576   49.0778 H       1  ZINC000426567005    0.1100
     35 H35        -0.8856    0.2099   49.6204 H       1  ZINC000426567005    0.0800
     36 H36        -2.0046   -0.1898   48.2755 H       1  ZINC000426567005    0.0700
     37 H37         0.9405    0.6562   48.1155 H       1  ZINC000426567005    0.0700
     38 H38         0.1381   -0.7279   47.3092 H       1  ZINC000426567005    0.0700
     39 H39         0.5571    1.7126   46.0662 H       1  ZINC000426567005    0.0700
     40 H40        -0.7931    0.6204   45.6478 H       1  ZINC000426567005    0.0700
     41 H41        -2.2850    2.1649   46.4302 H       1  ZINC000426567005    0.0600
     42 H42        -0.9348    3.2572   46.8485 H       1  ZINC000426567005    0.0700
     43 H43        -3.2855    0.6886   50.4160 H       1  ZINC000426567005    0.1700
     44 H44        -7.3782    0.0242   52.1326 H       1  ZINC000426567005    0.4300
     45 H45       -10.6160   -0.1197   51.4905 H       1  ZINC000426567005    0.1500
     46 H46       -12.4214   -0.8766   52.9745 H       1  ZINC000426567005    0.1400
     47 H47       -13.7777   -0.1555   54.7152 H       1  ZINC000426567005    0.4100
     48 H48       -13.9308   -0.0233   57.9668 H       1  ZINC000426567005    0.1300
     49 H49       -15.7384   -0.7849   59.4533 H       1  ZINC000426567005    0.1300
     50 H50       -17.4272   -2.3732   58.6273 H       1  ZINC000426567005    0.1200
     51 H51       -17.3130   -3.2058   56.3141 H       1  ZINC000426567005    0.1300
     52 H52       -15.5131   -2.4456   54.8175 H       1  ZINC000426567005    0.1300
     53 H53        -9.8057   -0.4639   56.3518 H       1  ZINC000426567005    0.1300
     54 H54        -8.0054    0.2875   54.8589 H       1  ZINC000426567005    0.1400
@<TRIPOS>BOND
     1     1     2    2
     2     2     3   am
     3     2    14    1
     4     3     4    1
     5     3    32    1
     6     4    13    1
     7     4     5    2
     8     5     6    1
     9     6     7    1
    10     6    33    1
    11     7     8    1
    12     7    13    2
    13     8    12    1
    14     8     9    1
    15     8    34    1
    16     9    10    1
    17     9    35    1
    18     9    36    1
    19    10    11    1
    20    10    37    1
    21    10    38    1
    22    11    12    1
    23    11    39    1
    24    11    40    1
    25    12    41    1
    26    12    42    1
    27    13    43    1
    28    14    15    2
    29    14    16   am
    30    16    17    1
    31    16    44    1
    32    17    31   ar
    33    17    18   ar
    34    18    19   ar
    35    18    45    1
    36    19    20   ar
    37    19    46    1
    38    20    21    1
    39    20    30   ar
    40    21    22    2
    41    21    23   am
    42    23    24    1
    43    23    47    1
    44    24    29   ar
    45    24    25   ar
    46    25    26   ar
    47    25    48    1
    48    26    27   ar
    49    26    49    1
    50    27    28   ar
    51    27    50    1
    52    28    29   ar
    53    28    51    1
    54    29    52    1
    55    30    31   ar
    56    30    53    1
    57    31    54    1
@<TRIPOS>SUBSTRUCTURE
     1 ZINC000426567005        1 TEMP              0 ****  ****    0 ROOT


##########                                Name:    ZINC000489986384
##########                DOCK_Rotatable_Bonds:                  11
##########                         Heavy_Atoms:                  31
##########                    Molecular_Weight:             415.492
##########                DOCK_Rotatable_Bonds:                  11
##########                       Formal_Charge:          -0.0499997
##########                     HBond_Acceptors:                   6
##########                        HBond_Donors:                   2
##########                         Heavy_Atoms:                  31
##########                          Grid_Score:          -33.545486
##########                     Grid_vdw_energy:          -32.387569
##########                      Grid_es_energy:           -1.157916
##########           Internal_energy_repulsive:           10.556412

@<TRIPOS>MOLECULE
ZINC000489986384
 56 59 1 0 0
SMALL
USER_CHARGES


@<TRIPOS>ATOM
      1 O1        -11.9278    1.2165   56.6584 O.2     1  ZINC000489986384   -0.5000
      2 C2        -10.9679    0.5425   56.9670 C.2     1  ZINC000489986384    0.4900
      3 C3        -10.9337   -0.1527   58.3037 C.3     1  ZINC000489986384    0.0900
      4 N4        -10.4577   -1.5269   58.1274 N.pl3   1  ZINC000489986384   -0.4700
      5 C5         -9.1632   -1.9734   58.3030 C.ar    1  ZINC000489986384    0.0700
      6 C6         -7.9712   -1.3629   58.6674 C.ar    1  ZINC000489986384   -0.1100
      7 C7         -6.8177   -2.1137   58.7533 C.ar    1  ZINC000489986384   -0.0900
      8 C8         -6.8415   -3.4732   58.4775 C.ar    1  ZINC000489986384   -0.1300
      9 C9         -8.0056   -4.0909   58.1167 C.ar    1  ZINC000489986384   -0.0600
     10 C10        -9.1868   -3.3506   58.0241 C.ar    1  ZINC000489986384    0.0500
     11 N11       -10.4669   -3.6663   57.6994 N.2     1  ZINC000489986384   -0.4600
     12 C12       -11.2106   -2.6009   57.7662 C.2     1  ZINC000489986384    0.2800
     13 C13       -12.6885   -2.5601   57.4746 C.3     1  ZINC000489986384    0.1400
     14 O14       -13.4052   -2.2947   58.6821 O.3     1  ZINC000489986384   -0.3000
     15 C15       -14.6927   -1.8783   58.5566 C.ar    1  ZINC000489986384    0.1300
     16 C16       -15.0371   -0.5758   58.8873 C.ar    1  ZINC000489986384   -0.2100
     17 C17       -16.3466   -0.1549   58.7583 C.ar    1  ZINC000489986384   -0.0800
     18 C18       -17.3136   -1.0307   58.3006 C.ar    1  ZINC000489986384   -0.1600
     19 C19       -16.9730   -2.3295   57.9708 C.ar    1  ZINC000489986384   -0.0800
     20 C20       -15.6638   -2.7535   58.0922 C.ar    1  ZINC000489986384   -0.1500
     21 N21        -9.9341    0.4106   56.1123 N.am    1  ZINC000489986384   -0.7300
     22 C22        -9.9674    1.0864   54.8130 C.3     1  ZINC000489986384    0.1300
     23 C23        -9.8116    0.0523   53.6961 C.3     1  ZINC000489986384   -0.0600
     24 H24        -9.2841   -0.8209   54.0803 H       1  ZINC000489986384    0.0900
     25 C25       -11.1942   -0.3676   53.1935 C.3     1  ZINC000489986384    0.0800
     26 O26       -11.7139   -1.3994   54.0347 O.3     1  ZINC000489986384   -0.5700
     27 C27        -9.0255    0.6544   52.5601 C.ar    1  ZINC000489986384   -0.0700
     28 C28        -9.2666    1.9575   52.1671 C.ar    1  ZINC000489986384   -0.1100
     29 C29        -8.5456    2.5098   51.1249 C.ar    1  ZINC000489986384   -0.1200
     30 C30        -7.5832    1.7590   50.4761 C.ar    1  ZINC000489986384   -0.1200
     31 C31        -7.3415    0.4561   50.8696 C.ar    1  ZINC000489986384   -0.1200
     32 C32        -8.0595   -0.0948   51.9146 C.ar    1  ZINC000489986384   -0.1100
     33 H33       -10.2605    0.3818   58.9741 H       1  ZINC000489986384    0.1200
     34 H34       -11.9362   -0.1674   58.7313 H       1  ZINC000489986384    0.1200
     35 H35        -7.9471   -0.3049   58.8826 H       1  ZINC000489986384    0.1200
     36 H36        -5.8895   -1.6401   59.0367 H       1  ZINC000489986384    0.1300
     37 H37        -5.9305   -4.0489   58.5482 H       1  ZINC000489986384    0.1300
     38 H38        -8.0126   -5.1496   57.9034 H       1  ZINC000489986384    0.1300
     39 H39       -12.8943   -1.7729   56.7494 H       1  ZINC000489986384    0.0800
     40 H40       -13.0053   -3.5206   57.0680 H       1  ZINC000489986384    0.1000
     41 H41       -14.2822    0.1085   59.2455 H       1  ZINC000489986384    0.1300
     42 H42       -16.6152    0.8590   59.0156 H       1  ZINC000489986384    0.1300
     43 H43       -18.3368   -0.6997   58.2008 H       1  ZINC000489986384    0.1200
     44 H44       -17.7302   -3.0118   57.6137 H       1  ZINC000489986384    0.1300
     45 H45       -15.3983   -3.7681   57.8343 H       1  ZINC000489986384    0.1300
     46 H46        -9.1682   -0.1317   56.3576 H       1  ZINC000489986384    0.4000
     47 H47       -10.9189    1.6053   54.6975 H       1  ZINC000489986384    0.0800
     48 H48        -9.1514    1.8070   54.7571 H       1  ZINC000489986384    0.0800
     49 H49       -11.8651    0.4912   53.2153 H       1  ZINC000489986384    0.0500
     50 H50       -11.1122   -0.7387   52.1719 H       1  ZINC000489986384    0.0500
     51 H51       -12.6056   -1.6887   53.7972 H       1  ZINC000489986384    0.3800
     52 H52       -10.0185    2.5441   52.6740 H       1  ZINC000489986384    0.1200
     53 H53        -8.7344    3.5277   50.8175 H       1  ZINC000489986384    0.1200
     54 H54        -7.0204    2.1903   49.6615 H       1  ZINC000489986384    0.1200
     55 H55        -6.5898   -0.1306   50.3625 H       1  ZINC000489986384    0.1200
     56 H56        -7.8707   -1.1127   52.2221 H       1  ZINC000489986384    0.1200
@<TRIPOS>BOND
     1     1     2    2
     2     2     3    1
     3     2    21   am
     4     3     4    1
     5     3    33    1
     6     3    34    1
     7     4    12    1
     8     4     5    1
     9     5    10   ar
    10     5     6   ar
    11     6     7   ar
    12     6    35    1
    13     7     8   ar
    14     7    36    1
    15     8     9   ar
    16     8    37    1
    17     9    10   ar
    18     9    38    1
    19    10    11    1
    20    11    12    2
    21    12    13    1
    22    13    14    1
    23    13    39    1
    24    13    40    1
    25    14    15    1
    26    15    20   ar
    27    15    16   ar
    28    16    17   ar
    29    16    41    1
    30    17    18   ar
    31    17    42    1
    32    18    19   ar
    33    18    43    1
    34    19    20   ar
    35    19    44    1
    36    20    45    1
    37    21    22    1
    38    21    46    1
    39    22    23    1
    40    22    47    1
    41    22    48    1
    42    23    24    1
    43    23    25    1
    44    23    27    1
    45    25    26    1
    46    25    49    1
    47    25    50    1
    48    26    51    1
    49    27    32   ar
    50    27    28   ar
    51    28    29   ar
    52    28    52    1
    53    29    30   ar
    54    29    53    1
    55    30    31   ar
    56    30    54    1
    57    31    32   ar
    58    31    55    1
    59    32    56    1
@<TRIPOS>SUBSTRUCTURE
     1 ZINC000489986384        1 TEMP              0 ****  ****    0 ROOT


##########                                Name:    ZINC000914736341
##########                DOCK_Rotatable_Bonds:                   7
##########                         Heavy_Atoms:                  27
##########                    Molecular_Weight:             384.905
##########                DOCK_Rotatable_Bonds:                   7
##########                       Formal_Charge:                0.02
##########                     HBond_Acceptors:                   5
##########                        HBond_Donors:                   1
##########                         Heavy_Atoms:                  27
##########                          Grid_Score:          -33.540089
##########                     Grid_vdw_energy:          -32.708385
##########                      Grid_es_energy:           -0.831702
##########           Internal_energy_repulsive:           25.687094

@<TRIPOS>MOLECULE
ZINC000914736341
 52 54 1 0 0
SMALL
USER_CHARGES


@<TRIPOS>ATOM
      1 C1         -5.9020    3.5133   50.2428 C.3     1  ZINC000914736341   -0.1400
      2 C2         -4.9949    2.4354   50.8396 C.3     1  ZINC000914736341   -0.0300
      3 C3         -4.3319    2.9725   52.1096 C.3     1  ZINC000914736341   -0.1400
      4 C4         -5.8292    1.1998   51.1834 C.3     1  ZINC000914736341    0.1300
      5 N5         -6.7905    1.5370   52.2361 N.am    1  ZINC000914736341   -0.7200
      6 C6         -7.8151    0.7038   52.5052 C.2     1  ZINC000914736341    0.5300
      7 O7         -7.9422   -0.3244   51.8747 O.2     1  ZINC000914736341   -0.5300
      8 C8         -8.8030    1.0499   53.5894 C.3     1  ZINC000914736341   -0.1200
      9 H9         -9.7145    1.4698   53.1642 H       1  ZINC000914736341    0.1200
     10 C10        -8.1767    2.0171   54.6205 C.3     1  ZINC000914736341   -0.1400
     11 C11        -8.7482    1.5664   55.9467 C.2     1  ZINC000914736341    0.5200
     12 O12        -8.7354    2.2216   56.9672 O.2     1  ZINC000914736341   -0.5200
     13 N13        -9.2727    0.3343   55.8293 N.am    1  ZINC000914736341   -0.6100
     14 C14        -9.9168   -0.3974   56.9229 C.3     1  ZINC000914736341    0.1600
     15 C15        -9.0052   -1.5010   57.3943 C.ar    1  ZINC000914736341   -0.1000
     16 C16        -7.8207   -1.1923   58.0357 C.ar    1  ZINC000914736341   -0.0800
     17 C17        -6.9843   -2.2046   58.4683 C.ar    1  ZINC000914736341   -0.1100
     18 C18        -7.3319   -3.5259   58.2591 C.ar    1  ZINC000914736341   -0.1000
     19 C19        -8.5165   -3.8360   57.6176 C.ar    1  ZINC000914736341   -0.1100
     20 C20        -9.3567   -2.8236   57.1901 C.ar    1  ZINC000914736341   -0.0300
     21 Cl21      -10.8446   -3.2123   56.3844 Cl      1  ZINC000914736341   -0.0600
     22 C22        -9.1183   -0.1836   54.4642 C.3     1  ZINC000914736341    0.1000
     23 C23        -3.9328    2.0616   49.8380 C.ar    1  ZINC000914736341   -0.0700
     24 C24        -4.0915    2.3940   48.5057 C.ar    1  ZINC000914736341   -0.1200
     25 C25        -3.1172    2.0511   47.5869 C.ar    1  ZINC000914736341   -0.1200
     26 C26        -1.9841    1.3760   48.0007 C.ar    1  ZINC000914736341   -0.1200
     27 C27        -1.8249    1.0444   49.3331 C.ar    1  ZINC000914736341   -0.1200
     28 C28        -2.7972    1.3911   50.2526 C.ar    1  ZINC000914736341   -0.1100
     29 H29        -5.3077    4.3936   49.9980 H       1  ZINC000914736341    0.0600
     30 H30        -6.3743    3.1306   49.3382 H       1  ZINC000914736341    0.0600
     31 H31        -6.6702    3.7837   50.9673 H       1  ZINC000914736341    0.0600
     32 H32        -5.1001    3.2428   52.8340 H       1  ZINC000914736341    0.0600
     33 H33        -3.6857    2.2046   52.5348 H       1  ZINC000914736341    0.0600
     34 H34        -3.7375    3.8528   51.8647 H       1  ZINC000914736341    0.0600
     35 H35        -6.3653    0.8649   50.2954 H       1  ZINC000914736341    0.0700
     36 H36        -5.1721    0.4035   51.5329 H       1  ZINC000914736341    0.0700
     37 H37        -6.6895    2.3600   52.7396 H       1  ZINC000914736341    0.4000
     38 H38        -7.0907    1.9229   54.6213 H       1  ZINC000914736341    0.1100
     39 H39        -8.4712    3.0447   54.4075 H       1  ZINC000914736341    0.1100
     40 H40       -10.1175    0.2856   57.7484 H       1  ZINC000914736341    0.1000
     41 H41       -10.8546   -0.8266   56.5702 H       1  ZINC000914736341    0.1000
     42 H42        -7.5482   -0.1601   58.1988 H       1  ZINC000914736341    0.1400
     43 H43        -6.0587   -1.9629   58.9696 H       1  ZINC000914736341    0.1300
     44 H44        -6.6778   -4.3163   58.5965 H       1  ZINC000914736341    0.1300
     45 H45        -8.7881   -4.8684   57.4542 H       1  ZINC000914736341    0.1400
     46 H46       -10.0433   -0.6557   54.1330 H       1  ZINC000914736341    0.1000
     47 H47        -8.2943   -0.8959   54.4220 H       1  ZINC000914736341    0.0900
     48 H48        -4.9768    2.9214   48.1825 H       1  ZINC000914736341    0.1300
     49 H49        -3.2416    2.3102   46.5459 H       1  ZINC000914736341    0.1200
     50 H50        -1.2232    1.1075   47.2827 H       1  ZINC000914736341    0.1200
     51 H51        -0.9398    0.5167   49.6562 H       1  ZINC000914736341    0.1200
     52 H52        -2.6728    1.1320   51.2936 H       1  ZINC000914736341    0.1200
@<TRIPOS>BOND
     1     1     2    1
     2     1    29    1
     3     1    30    1
     4     1    31    1
     5     2     3    1
     6     2     4    1
     7     2    23    1
     8     3    32    1
     9     3    33    1
    10     3    34    1
    11     4     5    1
    12     4    35    1
    13     4    36    1
    14     5     6   am
    15     5    37    1
    16     6     7    2
    17     6     8    1
    18     8     9    1
    19     8    22    1
    20     8    10    1
    21    10    11    1
    22    10    38    1
    23    10    39    1
    24    11    12    2
    25    11    13   am
    26    13    14    1
    27    13    22    1
    28    14    15    1
    29    14    40    1
    30    14    41    1
    31    15    20   ar
    32    15    16   ar
    33    16    17   ar
    34    16    42    1
    35    17    18   ar
    36    17    43    1
    37    18    19   ar
    38    18    44    1
    39    19    20   ar
    40    19    45    1
    41    20    21    1
    42    22    46    1
    43    22    47    1
    44    23    28   ar
    45    23    24   ar
    46    24    25   ar
    47    24    48    1
    48    25    26   ar
    49    25    49    1
    50    26    27   ar
    51    26    50    1
    52    27    28   ar
    53    27    51    1
    54    28    52    1
@<TRIPOS>SUBSTRUCTURE
     1 ZINC000914736341        1 TEMP              0 ****  ****    0 ROOT


##########                                Name:    ZINC000006915700
##########                DOCK_Rotatable_Bonds:                   5
##########                         Heavy_Atoms:                  26
##########                    Molecular_Weight:             369.447
##########                DOCK_Rotatable_Bonds:                   5
##########                       Formal_Charge:        -1.04308e-07
##########                     HBond_Acceptors:                   8
##########                        HBond_Donors:                   1
##########                         Heavy_Atoms:                  26
##########                          Grid_Score:          -33.476658
##########                     Grid_vdw_energy:          -31.235476
##########                      Grid_es_energy:           -2.241183
##########           Internal_energy_repulsive:            6.472748

@<TRIPOS>MOLECULE
ZINC000006915700
 45 48 1 0 0
SMALL
USER_CHARGES


@<TRIPOS>ATOM
      1 C1        -16.7895   -1.7443   57.6725 C.3     1  <0>        -0.1200
      2 C2        -15.2939   -1.7887   57.8525 C.ar    1  <0>        -0.0500
      3 C3        -14.5720   -2.8598   57.3569 C.ar    1  <0>        -0.1300
      4 C4        -13.2024   -2.9060   57.5181 C.ar    1  <0>        -0.0600
      5 C5        -12.5459   -1.8699   58.1826 C.ar    1  <0>        -0.0700
      6 C6        -11.0761   -1.9131   58.3586 C.2     1  <0>         0.4400
      7 N7        -10.4196   -3.0329   58.0853 N.2     1  <0>        -0.5200
      8 C8         -9.0931   -3.0868   58.2390 C.2     1  <0>         0.3600
      9 C9         -8.1536   -4.0900   58.0386 C.2     1  <0>        -0.3200
     10 C10        -6.9002   -3.5701   58.3656 C.2     1  <0>         0.5500
     11 O11        -5.8408   -4.1730   58.3081 O.2     1  <0>        -0.5200
     12 N12        -7.0577   -2.2899   58.7549 N.am    1  <0>        -0.5000
     13 N13        -8.4169   -1.9692   58.6831 N.pl3   1  <0>        -0.3300
     14 C14        -9.1213   -0.8321   58.9556 C.2     1  <0>         0.3900
     15 S15        -8.2892    0.6132   59.5245 S.3     1  <0>         0.1200
     16 C16        -7.8567    0.0872   61.2015 C.3     1  <0>        -0.1500
     17 C17        -9.0001    0.3930   62.1344 C.2     1  <0>         0.5500
     18 O18       -10.1155    0.5652   61.6906 O.2     1  <0>        -0.5200
     19 N19        -8.7830    0.4752   63.4620 N.am    1  <0>        -0.6100
     20 C20        -9.8034    0.7609   64.4812 C.3     1  <0>         0.0900
     21 C21        -9.0909    0.7810   65.8499 C.3     1  <0>        -0.1300
     22 C22        -7.6142    1.0660   65.4689 C.3     1  <0>        -0.1400
     23 C23        -7.4839    0.2875   64.1335 C.3     1  <0>         0.1000
     24 N24       -10.4340   -0.8225   58.7842 N.2     1  <0>        -0.5600
     25 C25       -13.2795   -0.7927   58.6799 C.ar    1  <0>        -0.0500
     26 C26       -14.6480   -0.7554   58.5077 C.ar    1  <0>        -0.1300
     27 H27       -17.0278   -1.2427   56.7346 H       1  <0>         0.0800
     28 H28       -17.1833   -2.7605   57.6513 H       1  <0>         0.0700
     29 H29       -17.2391   -1.1975   58.5014 H       1  <0>         0.0700
     30 H30       -15.0814   -3.6615   56.8430 H       1  <0>         0.1300
     31 H31       -12.6399   -3.7428   57.1312 H       1  <0>         0.1300
     32 H32        -8.3566   -5.0926   57.6922 H       1  <0>         0.1800
     33 H33        -6.3482   -1.6917   59.0370 H       1  <0>         0.4400
     34 H34        -7.6604   -0.9850   61.2067 H       1  <0>         0.1400
     35 H35        -6.9657    0.6214   61.5314 H       1  <0>         0.1400
     36 H36       -10.2601    1.7312   64.2867 H       1  <0>         0.0800
     37 H37       -10.5655   -0.0185   64.4713 H       1  <0>         0.0800
     38 H38        -9.4874    1.5777   66.4794 H       1  <0>         0.0900
     39 H39        -9.1815   -0.1853   66.3461 H       1  <0>         0.0800
     40 H40        -7.4479    2.1331   65.3207 H       1  <0>         0.0800
     41 H41        -6.9327    0.6667   66.2200 H       1  <0>         0.0900
     42 H42        -7.3002   -0.7694   64.3269 H       1  <0>         0.0800
     43 H43        -6.6825    0.7077   63.5259 H       1  <0>         0.0800
     44 H44       -12.7768    0.0125   59.1953 H       1  <0>         0.1400
     45 H45       -15.2170    0.0781   58.8921 H       1  <0>         0.1300
@<TRIPOS>BOND
     1     1     2    1
     2     1    27    1
     3     1    28    1
     4     1    29    1
     5     2    26   ar
     6     2     3   ar
     7     3     4   ar
     8     3    30    1
     9     4     5   ar
    10     4    31    1
    11     5     6    1
    12     5    25   ar
    13     6    24    1
    14     6     7    2
    15     7     8    1
    16     8    13    1
    17     8     9    2
    18     9    10    1
    19     9    32    1
    20    10    11    2
    21    10    12   am
    22    12    13    1
    23    12    33    1
    24    13    14    1
    25    14    15    1
    26    14    24    2
    27    15    16    1
    28    16    17    1
    29    16    34    1
    30    16    35    1
    31    17    18    2
    32    17    19   am
    33    19    23    1
    34    19    20    1
    35    20    21    1
    36    20    36    1
    37    20    37    1
    38    21    22    1
    39    21    38    1
    40    21    39    1
    41    22    23    1
    42    22    40    1
    43    22    41    1
    44    23    42    1
    45    23    43    1
    46    25    26   ar
    47    25    44    1
    48    26    45    1
@<TRIPOS>SUBSTRUCTURE
     1 <0>         1 TEMP              0 ****  ****    0 ROOT


##########                                Name:    ZINC001207290212
##########                DOCK_Rotatable_Bonds:                   8
##########                         Heavy_Atoms:                  23
##########                    Molecular_Weight:             344.435
##########                DOCK_Rotatable_Bonds:                   8
##########                       Formal_Charge:               -0.03
##########                     HBond_Acceptors:                   9
##########                        HBond_Donors:                   2
##########                         Heavy_Atoms:                  23
##########                          Grid_Score:          -33.432556
##########                     Grid_vdw_energy:          -27.232603
##########                      Grid_es_energy:           -6.199955
##########           Internal_energy_repulsive:            6.869581

@<TRIPOS>MOLECULE
ZINC001207290212
 47 48 1 0 0
SMALL
USER_CHARGES


@<TRIPOS>ATOM
      1 C1         -7.3358    3.2972   66.1172 C.3     1  ZINC001207290212   -0.1500
      2 C2         -7.5259    2.0448   66.9753 C.3     1  ZINC001207290212   -0.6300
      3 S3         -6.6579    0.6488   66.2084 S.o2    1  ZINC001207290212    2.6100
      4 O4         -5.3101    0.9963   65.9219 O.2     1  ZINC001207290212   -0.9500
      5 O5         -6.9753   -0.5641   66.8773 O.2     1  ZINC001207290212   -0.9500
      6 N6         -7.3644    0.4908   64.7191 N.am    1  ZINC001207290212   -1.1100
      7 C7         -8.7996    0.2164   64.6145 C.3     1  ZINC001207290212    0.0900
      8 C8         -9.2851    0.5973   63.2396 C.2     1  ZINC001207290212    0.5100
      9 O9        -10.4575    0.4739   62.9547 O.2     1  ZINC001207290212   -0.5300
     10 N10        -8.4164    1.0751   62.3266 N.am    1  ZINC001207290212   -0.7200
     11 C11        -8.8886    1.4470   60.9907 C.3     1  ZINC001207290212    0.1400
     12 H12        -9.6756    2.1976   61.0636 H       1  ZINC001207290212    0.1000
     13 C13        -9.4030    0.2045   60.2404 C.3     1  ZINC001207290212    0.0200
     14 N14        -8.5451    0.0315   59.0481 N.3     1  ZINC001207290212   -0.5100
     15 C15        -9.3163   -0.5028   57.9177 C.3     1  ZINC001207290212    0.1300
     16 C16        -9.5002   -1.9882   58.0924 C.2     1  ZINC001207290212    0.0000
     17 C17       -10.6170   -2.6047   58.5131 C.2     1  ZINC001207290212   -0.0700
     18 O18       -10.3587   -3.9271   58.5274 O.3     1  ZINC001207290212   -0.2000
     19 C19        -9.0951   -4.1010   58.1177 C.2     1  ZINC001207290212    0.1900
     20 C20        -8.3908   -5.4264   57.9826 C.3     1  ZINC001207290212   -0.0600
     21 N21        -8.5776   -2.9361   57.8496 N.2     1  ZINC001207290212   -0.4700
     22 C22        -8.0085    1.3809   58.7361 C.3     1  ZINC001207290212    0.0400
     23 C23        -7.7158    1.9806   60.1363 C.3     1  ZINC001207290212   -0.1000
     24 H24        -6.7630    1.6161   60.5204 H       1  ZINC001207290212    0.0900
     25 C25        -7.7270    3.5096   60.0834 C.3     1  ZINC001207290212   -0.1400
     26 H26        -6.2731    3.5277   66.0412 H       1  ZINC001207290212    0.0700
     27 H27        -7.7414    3.1201   65.1212 H       1  ZINC001207290212    0.0700
     28 H28        -7.8574    4.1360   66.5781 H       1  ZINC001207290212    0.0800
     29 H29        -7.1203    2.2219   67.9715 H       1  ZINC001207290212    0.1300
     30 H30        -8.5886    1.8144   67.0514 H       1  ZINC001207290212    0.1300
     31 H31        -6.8278    0.5798   63.9158 H       1  ZINC001207290212    0.4300
     32 H32        -8.9797   -0.8455   64.7821 H       1  ZINC001207290212    0.1000
     33 H33        -9.3363    0.7987   65.3635 H       1  ZINC001207290212    0.1100
     34 H34        -7.4785    1.1726   62.5541 H       1  ZINC001207290212    0.4100
     35 H35        -9.3288   -0.6737   60.8818 H       1  ZINC001207290212    0.0800
     36 H36       -10.4379    0.3575   59.9342 H       1  ZINC001207290212    0.0500
     37 H37       -10.2917   -0.0177   57.8817 H       1  ZINC001207290212    0.0600
     38 H38        -8.7800   -0.3098   56.9885 H       1  ZINC001207290212    0.1000
     39 H39       -11.5471   -2.1296   58.7886 H       1  ZINC001207290212    0.2100
     40 H40        -9.0692   -6.2294   58.2708 H       1  ZINC001207290212    0.0900
     41 H41        -8.0789   -5.5683   56.9478 H       1  ZINC001207290212    0.1000
     42 H42        -7.5149   -5.4403   58.6312 H       1  ZINC001207290212    0.1000
     43 H43        -7.0923    1.3046   58.1507 H       1  ZINC001207290212    0.0900
     44 H44        -8.7532    1.9790   58.2109 H       1  ZINC001207290212    0.0500
     45 H45        -8.6974    3.8538   59.7258 H       1  ZINC001207290212    0.0600
     46 H46        -7.5450    3.9089   61.0812 H       1  ZINC001207290212    0.0600
     47 H47        -6.9463    3.8554   59.4058 H       1  ZINC001207290212    0.0600
@<TRIPOS>BOND
     1     1     2    1
     2     1    26    1
     3     1    27    1
     4     1    28    1
     5     2     3    1
     6     2    29    1
     7     2    30    1
     8     3     4    2
     9     3     5    2
    10     3     6   am
    11     6     7    1
    12     6    31    1
    13     7     8    1
    14     7    32    1
    15     7    33    1
    16     8     9    2
    17     8    10   am
    18    10    11    1
    19    10    34    1
    20    11    12    1
    21    11    23    1
    22    11    13    1
    23    13    14    1
    24    13    35    1
    25    13    36    1
    26    14    15    1
    27    14    22    1
    28    15    16    1
    29    15    37    1
    30    15    38    1
    31    16    21    1
    32    16    17    2
    33    17    18    1
    34    17    39    1
    35    18    19    1
    36    19    20    1
    37    19    21    2
    38    20    40    1
    39    20    41    1
    40    20    42    1
    41    22    23    1
    42    22    43    1
    43    22    44    1
    44    23    24    1
    45    23    25    1
    46    25    45    1
    47    25    46    1
    48    25    47    1
@<TRIPOS>SUBSTRUCTURE
     1 ZINC001207290212        1 TEMP              0 ****  ****    0 ROOT


##########                                Name:    ZINC000465642058
##########                DOCK_Rotatable_Bonds:                  10
##########                         Heavy_Atoms:                  31
##########                    Molecular_Weight:             420.511
##########                DOCK_Rotatable_Bonds:                  10
##########                       Formal_Charge:          1.2666e-07
##########                     HBond_Acceptors:                   7
##########                        HBond_Donors:                   2
##########                         Heavy_Atoms:                  31
##########                          Grid_Score:          -33.413731
##########                     Grid_vdw_energy:          -32.140919
##########                      Grid_es_energy:           -1.272812
##########           Internal_energy_repulsive:           15.582763

@<TRIPOS>MOLECULE
ZINC000465642058
 59 62 1 0 0
SMALL
USER_CHARGES


@<TRIPOS>ATOM
      1 C1         -7.8618   -4.7518   58.2842 C.3     1  ZINC000465642058   -0.1500
      2 C2         -6.7992   -3.6571   58.4006 C.3     1  ZINC000465642058    0.0500
      3 O3         -7.3041   -2.4420   57.8433 O.3     1  ZINC000465642058   -0.3000
      4 C4         -8.1175   -1.6915   58.6335 C.ar    1  ZINC000465642058    0.1200
      5 C5         -7.6496   -1.1916   59.8405 C.ar    1  ZINC000465642058   -0.1600
      6 C6         -8.4773   -0.4309   60.6365 C.ar    1  ZINC000465642058   -0.1300
      7 C7         -9.7793   -0.1489   60.2449 C.ar    1  ZINC000465642058    0.0700
      8 C8        -10.2447   -0.6573   59.0347 C.ar    1  ZINC000465642058   -0.0700
      9 C9         -9.4173   -1.4168   58.2345 C.ar    1  ZINC000465642058   -0.1100
     10 C10        -9.9315   -1.9612   56.9268 C.3     1  ZINC000465642058    0.1900
     11 N11        -9.6316   -1.0128   55.8513 N.am    1  ZINC000465642058   -0.7300
     12 C12       -10.5398   -0.7834   54.8823 C.2     1  ZINC000465642058    0.7100
     13 O13       -11.6077   -1.3646   54.9001 O.2     1  ZINC000465642058   -0.5900
     14 N14       -10.2645    0.0903   53.8938 N.am    1  ZINC000465642058   -0.6200
     15 C15        -8.9787    0.7921   53.8735 C.3     1  ZINC000465642058    0.1900
     16 C16        -8.3184    0.5919   52.5336 C.2     1  ZINC000465642058    0.0500
     17 N17        -8.0233   -0.5601   51.9882 N.2     1  ZINC000465642058   -0.2700
     18 N18        -7.4226   -0.3154   50.7465 N.pl3   1  ZINC000465642058   -0.4700
     19 C19        -7.3682    1.0210   50.5676 C.2     1  ZINC000465642058    0.0600
     20 C20        -7.9207    1.6056   51.6557 C.2     1  ZINC000465642058   -0.2600
     21 C21       -11.2512    0.3385   52.8396 C.3     1  ZINC000465642058    0.1700
     22 C22       -11.6609    1.7884   52.8663 C.ar    1  ZINC000465642058   -0.1100
     23 C23       -11.2007    2.6547   51.8923 C.ar    1  ZINC000465642058   -0.0900
     24 C24       -11.5766    3.9848   51.9169 C.ar    1  ZINC000465642058   -0.1200
     25 C25       -12.4128    4.4485   52.9151 C.ar    1  ZINC000465642058   -0.1200
     26 C26       -12.8737    3.5819   53.8886 C.ar    1  ZINC000465642058   -0.1300
     27 C27       -12.5014    2.2510   53.8616 C.ar    1  ZINC000465642058   -0.1100
     28 O28       -10.4119    0.6332   61.1638 O.3     1  ZINC000465642058   -0.3000
     29 C29        -9.7159    0.5456   62.4188 C.3     1  ZINC000465642058    0.0800
     30 H30       -10.1199   -0.2623   63.0289 H       1  ZINC000465642058    0.0900
     31 C31        -9.7846    1.8764   63.1707 C.3     1  ZINC000465642058   -0.1500
     32 C32        -8.2649    0.2314   61.9842 C.3     1  ZINC000465642058   -0.1100
     33 H33        -8.1083   -4.9086   57.2340 H       1  ZINC000465642058    0.0700
     34 H34        -7.4767   -5.6786   58.7093 H       1  ZINC000465642058    0.0800
     35 H35        -8.7574   -4.4480   58.8262 H       1  ZINC000465642058    0.0700
     36 H36        -6.5527   -3.5002   59.4507 H       1  ZINC000465642058    0.0600
     37 H37        -5.9036   -3.9609   57.8586 H       1  ZINC000465642058    0.0600
     38 H38        -6.6377   -1.3990   60.1558 H       1  ZINC000465642058    0.1300
     39 H39       -11.2571   -0.4521   58.7194 H       1  ZINC000465642058    0.1400
     40 H40        -9.4485   -2.9151   56.7153 H       1  ZINC000465642058    0.0700
     41 H41       -11.0098   -2.1067   56.9927 H       1  ZINC000465642058    0.0800
     42 H42        -8.7792   -0.5500   55.8365 H       1  ZINC000465642058    0.4000
     43 H43        -9.1429    1.8563   54.0422 H       1  ZINC000465642058    0.1000
     44 H44        -8.3354    0.3946   54.6585 H       1  ZINC000465642058    0.0900
     45 H45        -7.1023   -0.9879   50.1253 H       1  ZINC000465642058    0.4400
     46 H46        -6.9606    1.5323   49.7080 H       1  ZINC000465642058    0.1800
     47 H47        -8.0295    2.6675   51.8201 H       1  ZINC000465642058    0.1500
     48 H48       -10.8137    0.1023   51.8696 H       1  ZINC000465642058    0.0900
     49 H49       -12.1264   -0.2896   53.0060 H       1  ZINC000465642058    0.0900
     50 H50       -10.5473    2.2926   51.1124 H       1  ZINC000465642058    0.1300
     51 H51       -11.2164    4.6618   51.1563 H       1  ZINC000465642058    0.1200
     52 H52       -12.7059    5.4877   52.9347 H       1  ZINC000465642058    0.1200
     53 H53       -13.5269    3.9442   54.6687 H       1  ZINC000465642058    0.1200
     54 H54       -12.8615    1.5740   54.6220 H       1  ZINC000465642058    0.1200
     55 H55       -10.8253    2.1187   63.3860 H       1  ZINC000465642058    0.0700
     56 H56        -9.2296    1.7947   64.1052 H       1  ZINC000465642058    0.0800
     57 H57        -9.3479    2.6638   62.5563 H       1  ZINC000465642058    0.0700
     58 H58        -7.7884   -0.4547   62.6845 H       1  ZINC000465642058    0.0900
     59 H59        -7.6823    1.1468   61.8808 H       1  ZINC000465642058    0.1000
@<TRIPOS>BOND
     1     1     2    1
     2     1    33    1
     3     1    34    1
     4     1    35    1
     5     2     3    1
     6     2    36    1
     7     2    37    1
     8     3     4    1
     9     4     9   ar
    10     4     5   ar
    11     5     6   ar
    12     5    38    1
    13     6    32    1
    14     6     7   ar
    15     7     8   ar
    16     7    28    1
    17     8     9   ar
    18     8    39    1
    19     9    10    1
    20    10    11    1
    21    10    40    1
    22    10    41    1
    23    11    12   am
    24    11    42    1
    25    12    13    2
    26    12    14   am
    27    14    15    1
    28    14    21    1
    29    15    16    1
    30    15    43    1
    31    15    44    1
    32    16    20    1
    33    16    17    2
    34    17    18    1
    35    18    19    1
    36    18    45    1
    37    19    20    2
    38    19    46    1
    39    20    47    1
    40    21    22    1
    41    21    48    1
    42    21    49    1
    43    22    27   ar
    44    22    23   ar
    45    23    24   ar
    46    23    50    1
    47    24    25   ar
    48    24    51    1
    49    25    26   ar
    50    25    52    1
    51    26    27   ar
    52    26    53    1
    53    27    54    1
    54    28    29    1
    55    29    30    1
    56    29    31    1
    57    29    32    1
    58    31    55    1
    59    31    56    1
    60    31    57    1
    61    32    58    1
    62    32    59    1
@<TRIPOS>SUBSTRUCTURE
     1 ZINC000465642058        1 TEMP              0 ****  ****    0 ROOT


##########                                Name:    ZINC000572257265
##########                DOCK_Rotatable_Bonds:                  11
##########                         Heavy_Atoms:                  24
##########                    Molecular_Weight:             393.509
##########                DOCK_Rotatable_Bonds:                  11
##########                       Formal_Charge:          -0.0100002
##########                     HBond_Acceptors:                  11
##########                        HBond_Donors:                   3
##########                         Heavy_Atoms:                  24
##########                          Grid_Score:          -33.401985
##########                     Grid_vdw_energy:          -32.644440
##########                      Grid_es_energy:           -0.757546
##########           Internal_energy_repulsive:            9.991470

@<TRIPOS>MOLECULE
ZINC000572257265
 43 43 1 0 0
SMALL
USER_CHARGES


@<TRIPOS>ATOM
      1 C1        -19.2909   -3.0568   58.3904 C.3     1  ZINC000572257265   -0.1300
      2 S2        -18.0429   -1.7431   58.3067 S.3     1  ZINC000572257265   -0.2200
      3 C3        -17.0041   -2.2555   56.9107 C.3     1  ZINC000572257265   -0.1300
      4 C4        -15.9925   -1.1517   56.5956 C.3     1  ZINC000572257265    0.1500
      5 C5        -15.9552   -0.9101   55.0852 C.3     1  ZINC000572257265   -0.1500
      6 O6        -16.3787    0.0524   57.2612 O.3     1  ZINC000572257265   -0.5400
      7 C7        -14.6048   -1.5786   57.0783 C.3     1  ZINC000572257265    0.0900
      8 N8        -14.7020   -2.1010   58.4435 N.am    1  ZINC000572257265   -1.1100
      9 S9        -13.7034   -3.3279   58.9337 S.o2    1  ZINC000572257265    2.6900
     10 O10       -13.9333   -3.5005   60.3253 O.2     1  ZINC000572257265   -0.9400
     11 O11       -13.8578   -4.3742   57.9846 O.2     1  ZINC000572257265   -0.9500
     12 C12       -12.0473   -2.7488   58.7708 C.ar    1  ZINC000572257265   -0.6300
     13 C13       -11.3419   -2.9904   57.6069 C.ar    1  ZINC000572257265   -0.0400
     14 C14       -10.0425   -2.5362   57.4792 C.ar    1  ZINC000572257265   -0.0400
     15 C15        -9.4488   -1.8399   58.5154 C.ar    1  ZINC000572257265   -0.6300
     16 S16        -7.7924   -1.2615   58.3529 S.o2    1  ZINC000572257265    2.7000
     17 O17        -7.7788   -0.3947   57.2269 O.2     1  ZINC000572257265   -0.9400
     18 O18        -7.3797   -0.8561   59.6508 O.2     1  ZINC000572257265   -0.9400
     19 N19        -6.8550   -2.5658   57.9501 N.am    1  ZINC000572257265   -1.1200
     20 C20        -6.7779   -3.7186   58.8509 C.3     1  ZINC000572257265    0.2200
     21 C21        -7.8447   -4.6758   58.5153 C.1     1  ZINC000572257265    0.1900
     22 N22        -8.6679   -5.4145   58.2562 N.1     1  ZINC000572257265   -0.3900
     23 C23       -10.1547   -1.5972   59.6789 C.ar    1  ZINC000572257265   -0.0400
     24 C24       -11.4553   -2.0482   59.8051 C.ar    1  ZINC000572257265   -0.0400
     25 H25       -18.7995   -4.0143   58.5631 H       1  ZINC000572257265    0.0800
     26 H26       -19.9817   -2.8502   59.2079 H       1  ZINC000572257265    0.1000
     27 H27       -19.8416   -3.0954   57.4504 H       1  ZINC000572257265    0.0800
     28 H28       -16.4734   -3.1716   57.1698 H       1  ZINC000572257265    0.0900
     29 H29       -17.6313   -2.4335   56.0372 H       1  ZINC000572257265    0.0900
     30 H30       -16.9437   -0.6059   54.7414 H       1  ZINC000572257265    0.0800
     31 H31       -15.2345   -0.1237   54.8607 H       1  ZINC000572257265    0.0700
     32 H32       -15.6606   -1.8286   54.5775 H       1  ZINC000572257265    0.0800
     33 H33       -17.2615    0.3675   57.0235 H       1  ZINC000572257265    0.3800
     34 H34       -14.2136   -2.3539   56.4195 H       1  ZINC000572257265    0.0900
     35 H35       -13.9352   -0.7187   57.0651 H       1  ZINC000572257265    0.0800
     36 H36       -15.3513   -1.7284   59.0604 H       1  ZINC000572257265    0.4300
     37 H37       -11.8057   -3.5343   56.7973 H       1  ZINC000572257265    0.1500
     38 H38        -9.4912   -2.7256   56.5701 H       1  ZINC000572257265    0.1500
     39 H39        -6.3569   -2.5666   57.1178 H       1  ZINC000572257265    0.4300
     40 H40        -5.8075   -4.2024   58.7397 H       1  ZINC000572257265    0.1100
     41 H41        -6.9011   -3.3837   59.8809 H       1  ZINC000572257265    0.1300
     42 H42        -9.6909   -1.0529   60.4882 H       1  ZINC000572257265    0.1600
     43 H43       -12.0068   -1.8585   60.7141 H       1  ZINC000572257265    0.1500
@<TRIPOS>BOND
     1     1     2    1
     2     1    25    1
     3     1    26    1
     4     1    27    1
     5     2     3    1
     6     3     4    1
     7     3    28    1
     8     3    29    1
     9     4     5    1
    10     4     6    1
    11     4     7    1
    12     5    30    1
    13     5    31    1
    14     5    32    1
    15     6    33    1
    16     7     8    1
    17     7    34    1
    18     7    35    1
    19     8     9   am
    20     8    36    1
    21     9    10    2
    22     9    11    2
    23     9    12    1
    24    12    24   ar
    25    12    13   ar
    26    13    14   ar
    27    13    37    1
    28    14    15   ar
    29    14    38    1
    30    15    16    1
    31    15    23   ar
    32    16    17    2
    33    16    18    2
    34    16    19   am
    35    19    20    1
    36    19    39    1
    37    20    21    1
    38    20    40    1
    39    20    41    1
    40    21    22    3
    41    23    24   ar
    42    23    42    1
    43    24    43    1
@<TRIPOS>SUBSTRUCTURE
     1 ZINC000572257265        1 TEMP              0 ****  ****    0 ROOT


##########                                Name:    ZINC000373715094
##########                DOCK_Rotatable_Bonds:                   6
##########                         Heavy_Atoms:                  27
##########                    Molecular_Weight:             362.431
##########                DOCK_Rotatable_Bonds:                   6
##########                       Formal_Charge:           0.0299999
##########                     HBond_Acceptors:                   6
##########                        HBond_Donors:                   2
##########                         Heavy_Atoms:                  27
##########                          Grid_Score:          -33.280270
##########                     Grid_vdw_energy:          -31.243944
##########                      Grid_es_energy:           -2.036324
##########           Internal_energy_repulsive:           11.708858

@<TRIPOS>MOLECULE
ZINC000373715094
 49 52 1 0 0
SMALL
USER_CHARGES


@<TRIPOS>ATOM
      1 C1         -9.1001    4.0773   52.7303 C.3     1  ZINC000373715094    0.0900
      2 N2         -8.3256    2.8896   52.3614 N.am    1  ZINC000373715094   -0.6100
      3 C3         -8.8666    1.7218   51.9737 C.2     1  ZINC000373715094    0.5200
      4 O4        -10.0561    1.5021   51.8869 O.2     1  ZINC000373715094   -0.5200
      5 C5         -7.7756    0.7215   51.6610 C.3     1  ZINC000373715094   -0.1600
      6 C6         -6.5003    1.5840   51.5169 C.3     1  ZINC000373715094   -0.1000
      7 H7         -5.6320    1.0678   51.9264 H       1  ZINC000373715094    0.1100
      8 C8         -6.2642    1.9725   50.0560 C.3     1  ZINC000373715094    0.1300
      9 N9         -4.8280    2.1425   49.8219 N.am    1  ZINC000373715094   -0.7300
     10 C10        -4.2729    3.3682   49.9006 C.2     1  ZINC000373715094    0.5200
     11 O11        -4.9621    4.3301   50.1664 O.2     1  ZINC000373715094   -0.5200
     12 C12        -2.7959    3.5433   49.6581 C.3     1  ZINC000373715094   -0.0600
     13 C13        -2.1908    2.2196   49.2672 C.2     1  ZINC000373715094    0.1200
     14 N14        -1.5869    1.3861   50.0653 N.2     1  ZINC000373715094   -0.2300
     15 N15        -1.1554    0.2637   49.3509 N.pl3   1  ZINC000373715094   -0.5100
     16 C16        -1.5104    0.4065   48.0349 C.ar    1  ZINC000373715094    0.1300
     17 C17        -1.3430   -0.3818   46.8995 C.ar    1  ZINC000373715094   -0.1400
     18 C18        -1.8243    0.0489   45.6955 C.ar    1  ZINC000373715094   -0.0700
     19 C19        -2.4812    1.2682   45.5866 C.ar    1  ZINC000373715094   -0.1600
     20 C20        -2.6599    2.0620   46.6825 C.ar    1  ZINC000373715094   -0.0400
     21 C21        -2.1822    1.6400   47.9279 C.ar    1  ZINC000373715094   -0.1600
     22 C22        -6.8595    2.8241   52.3619 C.3     1  ZINC000373715094    0.1800
     23 H23        -6.4371    3.7225   51.9118 H       1  ZINC000373715094    0.1000
     24 C24        -6.3519    2.6596   53.7713 C.ar    1  ZINC000373715094   -0.1000
     25 C25        -7.1297    2.0160   54.7154 C.ar    1  ZINC000373715094   -0.1000
     26 C26        -6.6640    1.8652   56.0082 C.ar    1  ZINC000373715094   -0.1200
     27 C27        -5.4203    2.3576   56.3567 C.ar    1  ZINC000373715094   -0.1100
     28 C28        -4.6420    3.0004   55.4123 C.ar    1  ZINC000373715094   -0.1200
     29 C29        -5.1058    3.1475   54.1185 C.ar    1  ZINC000373715094   -0.1100
     30 H30        -9.2779    4.6851   51.8431 H       1  ZINC000373715094    0.0600
     31 H31       -10.0547    3.7704   53.1577 H       1  ZINC000373715094    0.0800
     32 H32        -8.5439    4.6602   53.4645 H       1  ZINC000373715094    0.0700
     33 H33        -7.6645    0.0100   52.4791 H       1  ZINC000373715094    0.1100
     34 H34        -7.9914    0.2009   50.7280 H       1  ZINC000373715094    0.1100
     35 H35        -6.6480    1.1872   49.4046 H       1  ZINC000373715094    0.0700
     36 H36        -6.7807    2.9078   49.8407 H       1  ZINC000373715094    0.0800
     37 H37        -4.2766    1.3729   49.6106 H       1  ZINC000373715094    0.4000
     38 H38        -2.6425    4.2642   48.8551 H       1  ZINC000373715094    0.1200
     39 H39        -2.3188    3.9062   50.5684 H       1  ZINC000373715094    0.1200
     40 H40        -0.6807   -0.4942   49.7266 H       1  ZINC000373715094    0.4400
     41 H41        -0.8335   -1.3315   46.9702 H       1  ZINC000373715094    0.1300
     42 H42        -1.6921   -0.5660   44.8175 H       1  ZINC000373715094    0.1300
     43 H43        -2.8536    1.5911   44.6257 H       1  ZINC000373715094    0.1300
     44 H44        -3.1717    3.0085   46.5897 H       1  ZINC000373715094    0.1300
     45 H45        -8.1014    1.6313   54.4431 H       1  ZINC000373715094    0.1200
     46 H46        -7.2722    1.3629   56.7460 H       1  ZINC000373715094    0.1200
     47 H47        -5.0568    2.2403   57.3670 H       1  ZINC000373715094    0.1200
     48 H48        -3.6705    3.3854   55.6847 H       1  ZINC000373715094    0.1300
     49 H49        -4.4978    3.6497   53.3806 H       1  ZINC000373715094    0.1300
@<TRIPOS>BOND
     1     1     2    1
     2     1    30    1
     3     1    31    1
     4     1    32    1
     5     2    22    1
     6     2     3   am
     7     3     4    2
     8     3     5    1
     9     5     6    1
    10     5    33    1
    11     5    34    1
    12     6     7    1
    13     6     8    1
    14     6    22    1
    15     8     9    1
    16     8    35    1
    17     8    36    1
    18     9    10   am
    19     9    37    1
    20    10    11    2
    21    10    12    1
    22    12    13    1
    23    12    38    1
    24    12    39    1
    25    13    21    1
    26    13    14    2
    27    14    15    1
    28    15    16    1
    29    15    40    1
    30    16    21   ar
    31    16    17   ar
    32    17    18   ar
    33    17    41    1
    34    18    19   ar
    35    18    42    1
    36    19    20   ar
    37    19    43    1
    38    20    21   ar
    39    20    44    1
    40    22    23    1
    41    22    24    1
    42    24    29   ar
    43    24    25   ar
    44    25    26   ar
    45    25    45    1
    46    26    27   ar
    47    26    46    1
    48    27    28   ar
    49    27    47    1
    50    28    29   ar
    51    28    48    1
    52    29    49    1
@<TRIPOS>SUBSTRUCTURE
     1 ZINC000373715094        1 TEMP              0 ****  ****    0 ROOT


##########                                Name:    ZINC001342153661
##########                DOCK_Rotatable_Bonds:                   8
##########                         Heavy_Atoms:                  29
##########                    Molecular_Weight:             395.548
##########                DOCK_Rotatable_Bonds:                   8
##########                       Formal_Charge:          -0.0400005
##########                     HBond_Acceptors:                   6
##########                        HBond_Donors:                   1
##########                         Heavy_Atoms:                  29
##########                          Grid_Score:          -33.247002
##########                     Grid_vdw_energy:          -31.194380
##########                      Grid_es_energy:           -2.052621
##########           Internal_energy_repulsive:           19.324562

@<TRIPOS>MOLECULE
ZINC001342153661
 62 65 1 0 0
SMALL
USER_CHARGES


@<TRIPOS>ATOM
      1 C1         -6.5581    3.2323   58.4250 C.2     1  ZINC001342153661   -0.1400
      2 C2         -7.1826    3.0548   57.2871 C.2     1  ZINC001342153661   -0.1600
      3 C3         -8.5384    3.6747   57.0671 C.3     1  ZINC001342153661   -0.1200
      4 C4         -6.5451    2.2305   56.1984 C.3     1  ZINC001342153661    0.1500
      5 N5         -7.4450    1.1371   55.8233 N.pl3   1  ZINC001342153661   -0.4700
      6 C6         -7.7978    0.0593   56.5874 C.2     1  ZINC001342153661    0.1800
      7 C7         -7.3302   -0.2326   57.9899 C.3     1  ZINC001342153661   -0.0600
      8 C8         -7.4668   -1.7302   58.2718 C.3     1  ZINC001342153661    0.1600
      9 H9         -6.9631   -2.2950   57.4874 H       1  ZINC001342153661    0.1000
     10 O10        -6.8708   -2.0335   59.5347 O.3     1  ZINC001342153661   -0.5400
     11 C11        -8.9263   -2.1046   58.3023 C.ar    1  ZINC001342153661   -0.1700
     12 C12        -9.8173   -1.3920   59.0896 C.ar    1  ZINC001342153661   -0.0600
     13 C13       -11.1510   -1.7719   59.0860 C.ar    1  ZINC001342153661   -0.1700
     14 C14       -11.5446   -2.8406   58.3034 C.ar    1  ZINC001342153661    0.1000
     15 N15       -10.6688   -3.4958   57.5664 N.ar    1  ZINC001342153661   -0.4800
     16 C16        -9.3943   -3.1593   57.5412 C.ar    1  ZINC001342153661    0.1100
     17 N17        -8.6139   -0.6679   55.8783 N.2     1  ZINC001342153661   -0.2700
     18 N18        -8.7992   -0.1272   54.7272 N.2     1  ZINC001342153661   -0.3200
     19 C19        -8.1096    0.9858   54.6412 C.2     1  ZINC001342153661    0.3600
     20 N20        -8.0590    1.8417   53.5525 N.3     1  ZINC001342153661   -0.4500
     21 C21        -9.2810    1.7385   52.7447 C.3     1  ZINC001342153661    0.0500
     22 C22        -9.2540    2.7964   51.6391 C.3     1  ZINC001342153661   -0.1200
     23 C23        -8.0191    2.5782   50.7605 C.3     1  ZINC001342153661   -0.1200
     24 C24        -6.7632    2.6424   51.6341 C.3     1  ZINC001342153661   -0.0800
     25 H25        -6.6813    3.6330   52.0815 H       1  ZINC001342153661    0.0800
     26 C26        -5.5282    2.3667   50.7740 C.3     1  ZINC001342153661   -0.0800
     27 C27        -5.2541    3.5572   49.8218 C.3     1  ZINC001342153661   -0.1200
     28 C28        -3.7430    3.4090   49.5154 C.3     1  ZINC001342153661   -0.1300
     29 C29        -3.1288    2.9502   50.8542 C.3     1  ZINC001342153661   -0.1300
     30 C30        -4.2639    2.2876   51.6544 C.3     1  ZINC001342153661   -0.1200
     31 C31        -6.8623    1.5890   52.7398 C.3     1  ZINC001342153661    0.0800
     32 H32        -7.0149    3.8230   59.2052 H       1  ZINC001342153661    0.1000
     33 H33        -5.5883    2.7844   58.5843 H       1  ZINC001342153661    0.1100
     34 H34        -8.4168    4.6992   56.7156 H       1  ZINC001342153661    0.0700
     35 H35        -9.0852    3.0973   56.3216 H       1  ZINC001342153661    0.0600
     36 H36        -9.0941    3.6758   58.0049 H       1  ZINC001342153661    0.0700
     37 H37        -6.3566    2.8604   55.3290 H       1  ZINC001342153661    0.1000
     38 H38        -5.6030    1.8181   56.5594 H       1  ZINC001342153661    0.1000
     39 H39        -6.2860    0.0628   58.0936 H       1  ZINC001342153661    0.1100
     40 H40        -7.9384    0.3277   58.6999 H       1  ZINC001342153661    0.1000
     41 H41        -5.9241   -1.8415   59.5790 H       1  ZINC001342153661    0.3800
     42 H42        -9.4809   -0.5610   59.6917 H       1  ZINC001342153661    0.1300
     43 H43       -11.8728   -1.2395   59.6876 H       1  ZINC001342153661    0.1400
     44 H44       -12.5814   -3.1428   58.2953 H       1  ZINC001342153661    0.1600
     45 H45        -8.7064   -3.7196   56.9253 H       1  ZINC001342153661    0.1500
     46 H46        -9.3375    0.7464   52.2966 H       1  ZINC001342153661    0.0500
     47 H47       -10.1514    1.8999   53.3806 H       1  ZINC001342153661    0.0700
     48 H48       -10.1539    2.7093   51.0302 H       1  ZINC001342153661    0.0800
     49 H49        -9.2114    3.7894   52.0866 H       1  ZINC001342153661    0.0700
     50 H50        -8.0805    1.6007   50.2822 H       1  ZINC001342153661    0.0600
     51 H51        -7.9726    3.3556   49.9980 H       1  ZINC001342153661    0.0700
     52 H52        -5.6570    1.4444   50.2077 H       1  ZINC001342153661    0.0800
     53 H53        -5.8438    3.4660   48.9096 H       1  ZINC001342153661    0.0700
     54 H54        -5.4558    4.5052   50.3204 H       1  ZINC001342153661    0.0700
     55 H55        -3.5822    2.6558   48.7440 H       1  ZINC001342153661    0.0600
     56 H56        -3.3200    4.3658   49.2097 H       1  ZINC001342153661    0.0600
     57 H57        -2.3310    2.2303   50.6718 H       1  ZINC001342153661    0.0600
     58 H58        -2.7394    3.8095   51.4001 H       1  ZINC001342153661    0.0600
     59 H59        -4.4253    2.8253   52.5888 H       1  ZINC001342153661    0.0600
     60 H60        -4.0169    1.2462   51.8604 H       1  ZINC001342153661    0.0600
     61 H61        -5.9761    1.6417   53.3721 H       1  ZINC001342153661    0.0900
     62 H62        -6.9302    0.5976   52.2918 H       1  ZINC001342153661    0.0500
@<TRIPOS>BOND
     1     1     2    2
     2     1    32    1
     3     1    33    1
     4     2     3    1
     5     2     4    1
     6     3    34    1
     7     3    35    1
     8     3    36    1
     9     4     5    1
    10     4    37    1
    11     4    38    1
    12     5    19    1
    13     5     6    1
    14     6     7    1
    15     6    17    2
    16     7     8    1
    17     7    39    1
    18     7    40    1
    19     8     9    1
    20     8    10    1
    21     8    11    1
    22    10    41    1
    23    11    16   ar
    24    11    12   ar
    25    12    13   ar
    26    12    42    1
    27    13    14   ar
    28    13    43    1
    29    14    15   ar
    30    14    44    1
    31    15    16   ar
    32    16    45    1
    33    17    18    1
    34    18    19    2
    35    19    20    1
    36    20    31    1
    37    20    21    1
    38    21    22    1
    39    21    46    1
    40    21    47    1
    41    22    23    1
    42    22    48    1
    43    22    49    1
    44    23    24    1
    45    23    50    1
    46    23    51    1
    47    24    25    1
    48    24    26    1
    49    24    31    1
    50    26    30    1
    51    26    27    1
    52    26    52    1
    53    27    28    1
    54    27    53    1
    55    27    54    1
    56    28    29    1
    57    28    55    1
    58    28    56    1
    59    29    30    1
    60    29    57    1
    61    29    58    1
    62    30    59    1
    63    30    60    1
    64    31    61    1
    65    31    62    1
@<TRIPOS>SUBSTRUCTURE
     1 ZINC001342153661        1 TEMP              0 ****  ****    0 ROOT


##########                                Name:    ZINC001127302705
##########                DOCK_Rotatable_Bonds:                   9
##########                         Heavy_Atoms:                  28
##########                    Molecular_Weight:             398.892
##########                DOCK_Rotatable_Bonds:                   9
##########                       Formal_Charge:          -0.0200002
##########                     HBond_Acceptors:                   7
##########                        HBond_Donors:                   1
##########                         Heavy_Atoms:                  28
##########                          Grid_Score:          -33.207092
##########                     Grid_vdw_energy:          -32.699505
##########                      Grid_es_energy:           -0.507588
##########           Internal_energy_repulsive:           22.949015

@<TRIPOS>MOLECULE
ZINC001127302705
 51 53 1 0 0
SMALL
USER_CHARGES


@<TRIPOS>ATOM
      1 C1         -8.0049    4.5107   51.3102 C.3     1  ZINC001127302705   -0.1500
      2 C2         -6.5521    4.0571   51.1536 C.3     1  ZINC001127302705   -0.1400
      3 C3         -6.5126    2.5468   50.9124 C.3     1  ZINC001127302705    0.1800
      4 C4         -7.0192    2.2423   49.5012 C.3     1  ZINC001127302705   -0.1600
      5 C5         -5.0747    2.0445   51.0576 C.3     1  ZINC001127302705    0.0700
      6 O6         -4.3791    2.2282   49.8229 O.3     1  ZINC001127302705   -0.2800
      7 C7         -3.0406    2.0051   49.8308 C.ar    1  ZINC001127302705    0.3400
      8 N8         -2.4014    1.8975   50.9832 N.ar    1  ZINC001127302705   -0.5300
      9 C9         -1.1007    1.6802   51.0363 C.ar    1  ZINC001127302705    0.1400
     10 C10        -0.3557    1.5571   49.8807 C.ar    1  ZINC001127302705   -0.2000
     11 C11        -0.9886    1.6637   48.6498 C.ar    1  ZINC001127302705   -0.0300
     12 C12        -2.3552    1.8861   48.6271 C.ar    1  ZINC001127302705   -0.1100
     13 Cl13       -3.1987    2.0278   47.1164 Cl      1  ZINC001127302705   -0.0400
     14 N14        -7.3666    1.8730   51.8938 N.am    1  ZINC001127302705   -0.7100
     15 C15        -7.0597    1.9286   53.2050 C.2     1  ZINC001127302705    0.6200
     16 O16        -6.0750    2.5391   53.5735 O.2     1  ZINC001127302705   -0.5200
     17 C17        -7.9196    1.2478   54.1942 C.2     1  ZINC001127302705   -0.0200
     18 N18        -7.6969    1.1467   55.4895 N.2     1  ZINC001127302705   -0.2500
     19 N19        -8.6475    0.4894   56.0505 N.pl3   1  ZINC001127302705   -0.2800
     20 C20        -8.7263    0.1873   57.4817 C.3     1  ZINC001127302705    0.1600
     21 C21        -8.3568   -1.2554   57.7117 C.ar    1  ZINC001127302705   -0.1200
     22 C22        -9.3149   -2.2434   57.5827 C.ar    1  ZINC001127302705   -0.1000
     23 C23        -8.9760   -3.5668   57.7937 C.ar    1  ZINC001127302705   -0.1200
     24 C24        -7.6786   -3.9023   58.1332 C.ar    1  ZINC001127302705   -0.1100
     25 C25        -6.7202   -2.9144   58.2613 C.ar    1  ZINC001127302705   -0.1200
     26 C26        -7.0583   -1.5914   58.0461 C.ar    1  ZINC001127302705   -0.0800
     27 C27        -9.5637    0.1171   55.1309 C.2     1  ZINC001127302705   -0.0200
     28 C28        -9.1425    0.5855   53.9327 C.2     1  ZINC001127302705   -0.1800
     29 H29        -8.4571    3.9954   52.1577 H       1  ZINC001127302705    0.0500
     30 H30        -8.0330    5.5867   51.4821 H       1  ZINC001127302705    0.0600
     31 H31        -8.5596    4.2731   50.4025 H       1  ZINC001127302705    0.0500
     32 H32        -6.1000    4.5723   50.3061 H       1  ZINC001127302705    0.0900
     33 H33        -5.9974    4.2947   52.0613 H       1  ZINC001127302705    0.0800
     34 H34        -6.3838    2.7436   48.7710 H       1  ZINC001127302705    0.0700
     35 H35        -6.9911    1.1663   49.3293 H       1  ZINC001127302705    0.0500
     36 H36        -8.0436    2.6001   49.3978 H       1  ZINC001127302705    0.0800
     37 H37        -4.5716    2.6056   51.8451 H       1  ZINC001127302705    0.0800
     38 H38        -5.0841    0.9855   51.3152 H       1  ZINC001127302705    0.0700
     39 H39        -0.6128    1.5979   51.9963 H       1  ZINC001127302705    0.1700
     40 H40         0.7084    1.3800   49.9337 H       1  ZINC001127302705    0.1500
     41 H41        -0.4288    1.5713   47.7308 H       1  ZINC001127302705    0.1500
     42 H42        -8.1528    1.3869   51.5999 H       1  ZINC001127302705    0.4100
     43 H43        -8.0362    0.8306   58.0275 H       1  ZINC001127302705    0.1000
     44 H44        -9.7427    0.3627   57.8346 H       1  ZINC001127302705    0.1100
     45 H45       -10.3285   -1.9813   57.3174 H       1  ZINC001127302705    0.1200
     46 H46        -9.7248   -4.3387   57.6935 H       1  ZINC001127302705    0.1300
     47 H47        -7.4139   -4.9362   58.2987 H       1  ZINC001127302705    0.1200
     48 H48        -5.7068   -3.1765   58.5269 H       1  ZINC001127302705    0.1300
     49 H49        -6.3095   -0.8196   58.1462 H       1  ZINC001127302705    0.1300
     50 H50       -10.4667   -0.4452   55.3174 H       1  ZINC001127302705    0.1800
     51 H51        -9.6327    0.4713   52.9772 H       1  ZINC001127302705    0.1600
@<TRIPOS>BOND
     1     1     2    1
     2     1    29    1
     3     1    30    1
     4     1    31    1
     5     2     3    1
     6     2    32    1
     7     2    33    1
     8     3     4    1
     9     3     5    1
    10     3    14    1
    11     4    34    1
    12     4    35    1
    13     4    36    1
    14     5     6    1
    15     5    37    1
    16     5    38    1
    17     6     7    1
    18     7    12   ar
    19     7     8   ar
    20     8     9   ar
    21     9    10   ar
    22     9    39    1
    23    10    11   ar
    24    10    40    1
    25    11    12   ar
    26    11    41    1
    27    12    13    1
    28    14    15   am
    29    14    42    1
    30    15    16    2
    31    15    17    1
    32    17    28    1
    33    17    18    2
    34    18    19    1
    35    19    20    1
    36    19    27    1
    37    20    21    1
    38    20    43    1
    39    20    44    1
    40    21    26   ar
    41    21    22   ar
    42    22    23   ar
    43    22    45    1
    44    23    24   ar
    45    23    46    1
    46    24    25   ar
    47    24    47    1
    48    25    26   ar
    49    25    48    1
    50    26    49    1
    51    27    28    2
    52    27    50    1
    53    28    51    1
@<TRIPOS>SUBSTRUCTURE
     1 ZINC001127302705        1 TEMP              0 ****  ****    0 ROOT


##########                                Name:    ZINC001191196975
##########                DOCK_Rotatable_Bonds:                  14
##########                         Heavy_Atoms:                  24
##########                    Molecular_Weight:             339.438
##########                DOCK_Rotatable_Bonds:                  14
##########                       Formal_Charge:          0.00999969
##########                     HBond_Acceptors:                   8
##########                        HBond_Donors:                   4
##########                         Heavy_Atoms:                  24
##########                          Grid_Score:          -33.204781
##########                     Grid_vdw_energy:          -30.721861
##########                      Grid_es_energy:           -2.482920
##########           Internal_energy_repulsive:           14.879543

@<TRIPOS>MOLECULE
ZINC001191196975
 53 53 1 0 0
SMALL
USER_CHARGES


@<TRIPOS>ATOM
      1 C1        -11.0973    6.8286   46.6529 C.2     1  ZINC001191196975   -0.1600
      2 C2         -9.8793    6.8868   47.1315 C.2     1  ZINC001191196975   -0.1800
      3 C3         -9.6191    6.5373   48.5742 C.3     1  ZINC001191196975    0.1500
      4 N4         -9.2491    5.1234   48.6752 N.am    1  ZINC001191196975   -0.7300
      5 C5         -8.3897    4.7184   49.6311 C.2     1  ZINC001191196975    0.5100
      6 O6         -7.9238    5.5241   50.4086 O.2     1  ZINC001191196975   -0.5200
      7 C7         -8.0077    3.2642   49.7337 C.3     1  ZINC001191196975    0.0300
      8 N8         -7.2443    3.0445   50.9695 N.3     1  ZINC001191196975   -0.5100
      9 C9         -8.0353    2.2882   51.9495 C.3     1  ZINC001191196975    0.0200
     10 C10        -5.9700    2.3699   50.6882 C.3     1  ZINC001191196975    0.0700
     11 H11        -6.1393    1.3910   50.2397 H       1  ZINC001191196975    0.0600
     12 C12        -5.1080    2.2517   51.9728 C.3     1  ZINC001191196975   -0.1200
     13 C13        -3.6687    2.1933   51.4190 C.3     1  ZINC001191196975    0.1000
     14 N14        -3.6922    2.7958   50.0781 N.am    1  ZINC001191196975   -0.6200
     15 C15        -2.6338    2.9160   49.2523 C.2     1  ZINC001191196975    0.5300
     16 O16        -2.7696    3.4336   48.1639 O.2     1  ZINC001191196975   -0.5400
     17 C17        -1.2818    2.4074   49.6814 C.3     1  ZINC001191196975   -0.1300
     18 C18        -1.2200    0.8918   49.4815 C.3     1  ZINC001191196975   -0.1000
     19 C19        -0.5298    0.5803   48.1521 C.3     1  ZINC001191196975   -0.1300
     20 C20        -1.5763    0.5105   47.0381 C.3     1  ZINC001191196975    0.1400
     21 N21        -0.9326    0.0987   45.7883 N.am    1  ZINC001191196975   -0.7500
     22 C22        -1.4523    0.4806   44.6049 C.2     1  ZINC001191196975    0.7000
     23 N23        -0.8591    0.1032   43.4550 N.am    1  ZINC001191196975   -0.8700
     24 O24        -2.4564    1.1657   44.5746 O.2     1  ZINC001191196975   -0.5900
     25 C25        -5.0658    3.2454   49.7851 C.3     1  ZINC001191196975    0.1100
     26 H26       -11.9151    6.5302   47.2922 H       1  ZINC001191196975    0.1000
     27 H27       -11.2843    7.0834   45.6202 H       1  ZINC001191196975    0.1000
     28 H28        -9.0615    7.1851   46.4923 H       1  ZINC001191196975    0.1200
     29 H29        -8.8056    7.1539   48.9564 H       1  ZINC001191196975    0.0800
     30 H30       -10.5198    6.7199   49.1604 H       1  ZINC001191196975    0.0700
     31 H31        -9.6226    4.4788   48.0540 H       1  ZINC001191196975    0.4000
     32 H32        -8.9093    2.6519   49.7500 H       1  ZINC001191196975    0.0700
     33 H33        -7.3961    2.9876   48.8749 H       1  ZINC001191196975    0.1100
     34 H34        -8.3980    1.3681   51.4913 H       1  ZINC001191196975    0.0200
     35 H35        -7.4115    2.0445   52.8094 H       1  ZINC001191196975    0.0700
     36 H36        -8.8832    2.8909   52.2749 H       1  ZINC001191196975    0.0900
     37 H37        -5.2414    3.1269   52.6087 H       1  ZINC001191196975    0.0900
     38 H38        -5.3493    1.3383   52.5165 H       1  ZINC001191196975    0.0800
     39 H39        -2.9988    2.7580   52.0675 H       1  ZINC001191196975    0.0700
     40 H40        -3.3383    1.1566   51.3539 H       1  ZINC001191196975    0.0700
     41 H41        -0.5069    2.8849   49.0815 H       1  ZINC001191196975    0.0900
     42 H42        -1.1226    2.6418   50.7338 H       1  ZINC001191196975    0.0900
     43 H43        -0.6564    0.4403   50.2980 H       1  ZINC001191196975    0.0800
     44 H44        -2.2313    0.4853   49.4699 H       1  ZINC001191196975    0.0800
     45 H45         0.1913    1.3655   47.9244 H       1  ZINC001191196975    0.0700
     46 H46        -0.0136   -0.3767   48.2261 H       1  ZINC001191196975    0.0700
     47 H47        -2.3450   -0.2141   47.3067 H       1  ZINC001191196975    0.0700
     48 H48        -2.0323    1.4917   46.9059 H       1  ZINC001191196975    0.0700
     49 H49        -0.1322   -0.4488   45.8124 H       1  ZINC001191196975    0.4000
     50 H50        -1.2325    0.3790   42.6033 H       1  ZINC001191196975    0.4000
     51 H51        -0.0587   -0.4443   43.4793 H       1  ZINC001191196975    0.4200
     52 H52        -5.3032    3.0798   48.7343 H       1  ZINC001191196975    0.0800
     53 H53        -5.1826    4.2988   50.0398 H       1  ZINC001191196975    0.0800
@<TRIPOS>BOND
     1     1     2    2
     2     1    26    1
     3     1    27    1
     4     2     3    1
     5     2    28    1
     6     3     4    1
     7     3    29    1
     8     3    30    1
     9     4     5   am
    10     4    31    1
    11     5     6    2
    12     5     7    1
    13     7     8    1
    14     7    32    1
    15     7    33    1
    16     8     9    1
    17     8    10    1
    18     9    34    1
    19     9    35    1
    20     9    36    1
    21    10    11    1
    22    10    25    1
    23    10    12    1
    24    12    13    1
    25    12    37    1
    26    12    38    1
    27    13    14    1
    28    13    39    1
    29    13    40    1
    30    14    15   am
    31    14    25    1
    32    15    16    2
    33    15    17    1
    34    17    18    1
    35    17    41    1
    36    17    42    1
    37    18    19    1
    38    18    43    1
    39    18    44    1
    40    19    20    1
    41    19    45    1
    42    19    46    1
    43    20    21    1
    44    20    47    1
    45    20    48    1
    46    21    22   am
    47    21    49    1
    48    22    23   am
    49    22    24    2
    50    23    50    1
    51    23    51    1
    52    25    52    1
    53    25    53    1
@<TRIPOS>SUBSTRUCTURE
     1 ZINC001191196975        1 TEMP              0 ****  ****    0 ROOT


##########                                Name:    ZINC000435005159
##########                DOCK_Rotatable_Bonds:                  12
##########                         Heavy_Atoms:                  30
##########                    Molecular_Weight:             401.508
##########                DOCK_Rotatable_Bonds:                  12
##########                       Formal_Charge:          -0.0399985
##########                     HBond_Acceptors:                   5
##########                        HBond_Donors:                   2
##########                         Heavy_Atoms:                  30
##########                          Grid_Score:          -33.193005
##########                     Grid_vdw_energy:          -30.561295
##########                      Grid_es_energy:           -2.631710
##########           Internal_energy_repulsive:           10.737001

@<TRIPOS>MOLECULE
ZINC000435005159
 57 59 1 0 0
SMALL
USER_CHARGES


@<TRIPOS>ATOM
      1 O1         -9.7022   -0.4069   61.0555 O.2     1  ZINC000435005159   -0.5300
      2 C2         -8.5454   -0.0911   61.2372 C.2     1  ZINC000435005159    0.5200
      3 C3         -8.0672    0.2528   62.6243 C.3     1  ZINC000435005159   -0.1400
      4 C4         -9.1436   -0.1261   63.6435 C.3     1  ZINC000435005159   -0.1200
      5 C5         -8.5501   -0.0805   65.0528 C.3     1  ZINC000435005159    0.1200
      6 N6         -8.1274    1.2881   65.3605 N.am    1  ZINC000435005159   -0.7200
      7 C7         -9.0145    2.1712   65.8600 C.2     1  ZINC000435005159    0.5600
      8 O8        -10.1658    1.8326   66.0539 O.2     1  ZINC000435005159   -0.5300
      9 C9         -8.5876    3.5517   66.1721 C.ar    1  ZINC000435005159   -0.1900
     10 C10        -7.2660    3.9556   65.9493 C.ar    1  ZINC000435005159   -0.0200
     11 C11        -6.9175    5.2590   66.2579 C.ar    1  ZINC000435005159   -0.1800
     12 C12        -7.8767    6.1127   66.7716 C.ar    1  ZINC000435005159    0.1200
     13 N13        -9.1154    5.7040   66.9718 N.ar    1  ZINC000435005159   -0.4900
     14 C14        -9.4968    4.4760   66.6887 C.ar    1  ZINC000435005159    0.1400
     15 N15        -7.6862   -0.0532   60.1995 N.am    1  ZINC000435005159   -0.7300
     16 C16        -8.1511   -0.3875   58.8511 C.3     1  ZINC000435005159    0.1900
     17 H17        -9.1661   -0.0144   58.7136 H       1  ZINC000435005159    0.1000
     18 C18        -7.2260    0.2588   57.8178 C.3     1  ZINC000435005159   -0.1200
     19 C19        -7.4886    1.7653   57.7698 C.3     1  ZINC000435005159   -0.0800
     20 C20        -6.7382    2.3694   56.6109 C.ar    1  ZINC000435005159   -0.0800
     21 C21        -7.3571    2.5056   55.3823 C.ar    1  ZINC000435005159   -0.1200
     22 C22        -6.6688    3.0598   54.3193 C.ar    1  ZINC000435005159   -0.1200
     23 C23        -5.3618    3.4782   54.4850 C.ar    1  ZINC000435005159   -0.1200
     24 C24        -4.7432    3.3429   55.7137 C.ar    1  ZINC000435005159   -0.1200
     25 C25        -5.4329    2.7926   56.7780 C.ar    1  ZINC000435005159   -0.1200
     26 C26        -8.1373   -1.8837   58.6714 C.ar    1  ZINC000435005159   -0.1000
     27 C27        -9.3104   -2.5560   58.3838 C.ar    1  ZINC000435005159   -0.1100
     28 C28        -9.2978   -3.9284   58.2189 C.ar    1  ZINC000435005159   -0.1200
     29 C29        -8.1120   -4.6285   58.3413 C.ar    1  ZINC000435005159   -0.1200
     30 C30        -6.9389   -3.9559   58.6281 C.ar    1  ZINC000435005159   -0.1200
     31 C31        -6.9507   -2.5830   58.7886 C.ar    1  ZINC000435005159   -0.1000
     32 H32        -7.1521   -0.2988   62.8404 H       1  ZINC000435005159    0.1000
     33 H33        -7.8694    1.3229   62.6856 H       1  ZINC000435005159    0.1000
     34 H34        -9.9726    0.5783   63.5752 H       1  ZINC000435005159    0.0800
     35 H35        -9.5044   -1.1330   63.4335 H       1  ZINC000435005159    0.0800
     36 H36        -9.3022   -0.3993   65.7744 H       1  ZINC000435005159    0.0700
     37 H37        -7.6894   -0.7472   65.1064 H       1  ZINC000435005159    0.0700
     38 H38        -7.2090    1.5587   65.2046 H       1  ZINC000435005159    0.4000
     39 H39        -6.5368    3.2677   65.5471 H       1  ZINC000435005159    0.1500
     40 H40        -5.9070    5.6058   66.0995 H       1  ZINC000435005159    0.1500
     41 H41        -7.6076    7.1303   67.0132 H       1  ZINC000435005159    0.1600
     42 H42       -10.5198    4.1788   66.8663 H       1  ZINC000435005159    0.1600
     43 H43        -6.7601    0.1956   60.3455 H       1  ZINC000435005159    0.4000
     44 H44        -6.1878    0.0796   58.0973 H       1  ZINC000435005159    0.0700
     45 H45        -7.4182   -0.1749   56.8364 H       1  ZINC000435005159    0.0800
     46 H46        -8.5564    1.9442   57.6442 H       1  ZINC000435005159    0.0700
     47 H47        -7.1505    2.2229   58.6996 H       1  ZINC000435005159    0.0700
     48 H48        -8.3783    2.1786   55.2529 H       1  ZINC000435005159    0.1200
     49 H49        -7.1521    3.1655   53.3593 H       1  ZINC000435005159    0.1200
     50 H50        -4.8239    3.9106   53.6543 H       1  ZINC000435005159    0.1200
     51 H51        -3.7219    3.6695   55.8431 H       1  ZINC000435005159    0.1200
     52 H52        -4.9496    2.6869   57.7380 H       1  ZINC000435005159    0.1200
     53 H53       -10.2368   -2.0092   58.2882 H       1  ZINC000435005159    0.1200
     54 H54       -10.2144   -4.4539   57.9950 H       1  ZINC000435005159    0.1200
     55 H55        -8.1023   -5.7007   58.2132 H       1  ZINC000435005159    0.1200
     56 H56        -6.0125   -4.5028   58.7240 H       1  ZINC000435005159    0.1200
     57 H57        -6.0341   -2.0576   59.0126 H       1  ZINC000435005159    0.1200
@<TRIPOS>BOND
     1     1     2    2
     2     2     3    1
     3     2    15   am
     4     3     4    1
     5     3    32    1
     6     3    33    1
     7     4     5    1
     8     4    34    1
     9     4    35    1
    10     5     6    1
    11     5    36    1
    12     5    37    1
    13     6     7   am
    14     6    38    1
    15     7     8    2
    16     7     9    1
    17     9    14   ar
    18     9    10   ar
    19    10    11   ar
    20    10    39    1
    21    11    12   ar
    22    11    40    1
    23    12    13   ar
    24    12    41    1
    25    13    14   ar
    26    14    42    1
    27    15    16    1
    28    15    43    1
    29    16    17    1
    30    16    18    1
    31    16    26    1
    32    18    19    1
    33    18    44    1
    34    18    45    1
    35    19    20    1
    36    19    46    1
    37    19    47    1
    38    20    25   ar
    39    20    21   ar
    40    21    22   ar
    41    21    48    1
    42    22    23   ar
    43    22    49    1
    44    23    24   ar
    45    23    50    1
    46    24    25   ar
    47    24    51    1
    48    25    52    1
    49    26    31   ar
    50    26    27   ar
    51    27    28   ar
    52    27    53    1
    53    28    29   ar
    54    28    54    1
    55    29    30   ar
    56    29    55    1
    57    30    31   ar
    58    30    56    1
    59    31    57    1
@<TRIPOS>SUBSTRUCTURE
     1 ZINC000435005159        1 TEMP              0 ****  ****    0 ROOT


##########                                Name:    ZINC000008416770
##########                DOCK_Rotatable_Bonds:                  13
##########                         Heavy_Atoms:                  30
##########                    Molecular_Weight:             412.442
##########                DOCK_Rotatable_Bonds:                  13
##########                       Formal_Charge:          -0.0199998
##########                     HBond_Acceptors:                   8
##########                        HBond_Donors:                   2
##########                         Heavy_Atoms:                  30
##########                          Grid_Score:          -33.192760
##########                     Grid_vdw_energy:          -33.641464
##########                      Grid_es_energy:            0.448705
##########           Internal_energy_repulsive:            7.390179

@<TRIPOS>MOLECULE
ZINC000008416770
 54 55 1 0 0
SMALL
USER_CHARGES


@<TRIPOS>ATOM
      1 C1        -13.7833   -2.5074   59.9298 C.3     1  ZINC000008416770   -0.1500
      2 C2        -14.7075   -2.1655   58.7593 C.3     1  ZINC000008416770    0.0600
      3 O3        -14.8300   -3.3194   57.8865 O.3     1  ZINC000008416770   -0.3500
      4 C4        -13.6853   -3.8798   57.4491 C.2     1  ZINC000008416770    0.5100
      5 O5        -13.4548   -5.0502   57.6799 O.2     1  ZINC000008416770   -0.5100
      6 C6        -12.7121   -3.0724   56.6901 C.ar    1  ZINC000008416770   -0.1500
      7 C7        -11.3408   -3.2695   56.8774 C.ar    1  ZINC000008416770   -0.0400
      8 C8        -10.4353   -2.5144   56.1670 C.ar    1  ZINC000008416770   -0.1400
      9 C9        -10.8835   -1.5559   55.2633 C.ar    1  ZINC000008416770    0.1800
     10 N10        -9.9635   -0.7930   54.5456 N.am    1  ZINC000008416770   -0.6700
     11 C11        -9.5554    0.3982   55.0260 C.2     1  ZINC000008416770    0.5200
     12 O12        -9.9884    0.8065   56.0827 O.2     1  ZINC000008416770   -0.5100
     13 C13        -8.5610    1.2229   54.2500 C.3     1  ZINC000008416770   -0.1300
     14 C14        -9.1558    1.5919   52.8894 C.3     1  ZINC000008416770   -0.1000
     15 C15        -8.2533    2.5812   52.1983 C.2     1  ZINC000008416770    0.4700
     16 O16        -8.4581    3.7667   52.3106 O.2     1  ZINC000008416770   -0.5100
     17 O17        -7.2220    2.1454   51.4579 O.3     1  ZINC000008416770   -0.3300
     18 C18        -5.9619    2.8525   51.6016 C.3     1  ZINC000008416770    0.0500
     19 C19        -4.9103    2.1818   50.7559 C.2     1  ZINC000008416770    0.5100
     20 O20        -4.9081    0.9749   50.6349 O.2     1  ZINC000008416770   -0.4900
     21 N21        -3.9722    2.9230   50.1339 N.am    1  ZINC000008416770   -0.6700
     22 C22        -2.9957    2.3004   49.3486 C.ar    1  ZINC000008416770    0.1400
     23 C23        -3.2421    2.0431   48.0064 C.ar    1  ZINC000008416770   -0.1400
     24 C24        -2.2762    1.4283   47.2339 C.ar    1  ZINC000008416770   -0.1000
     25 C25        -1.0650    1.0687   47.7959 C.ar    1  ZINC000008416770   -0.1000
     26 C26        -0.0135    0.3977   46.9502 C.3     1  ZINC000008416770   -0.1200
     27 C27        -0.8164    1.3239   49.1319 C.ar    1  ZINC000008416770   -0.1000
     28 C28        -1.7759    1.9435   49.9083 C.ar    1  ZINC000008416770   -0.1200
     29 C29       -12.2477   -1.3574   55.0741 C.ar    1  ZINC000008416770   -0.1600
     30 C30       -13.1588   -2.1122   55.7775 C.ar    1  ZINC000008416770   -0.0300
     31 H31       -14.2008   -3.3440   60.4901 H       1  ZINC000008416770    0.0700
     32 H32       -12.7995   -2.7804   59.5482 H       1  ZINC000008416770    0.0700
     33 H33       -13.6912   -1.6411   60.5850 H       1  ZINC000008416770    0.0800
     34 H34       -15.6912   -1.8924   59.1409 H       1  ZINC000008416770    0.0700
     35 H35       -14.2900   -1.3289   58.1991 H       1  ZINC000008416770    0.0700
     36 H36       -10.9923   -4.0131   57.5789 H       1  ZINC000008416770    0.1400
     37 H37        -9.3758   -2.6659   56.3114 H       1  ZINC000008416770    0.1400
     38 H38        -9.6172   -1.1196   53.7004 H       1  ZINC000008416770    0.4200
     39 H39        -8.3316    2.1325   54.8050 H       1  ZINC000008416770    0.1100
     40 H40        -7.6474    0.6468   54.1029 H       1  ZINC000008416770    0.1100
     41 H41        -9.2473    0.6945   52.2775 H       1  ZINC000008416770    0.1200
     42 H42       -10.1408    2.0364   53.0321 H       1  ZINC000008416770    0.1200
     43 H43        -6.0857    3.8853   51.2762 H       1  ZINC000008416770    0.1100
     44 H44        -5.6530    2.8354   52.6468 H       1  ZINC000008416770    0.1100
     45 H45        -3.9739    3.8882   50.2306 H       1  ZINC000008416770    0.4100
     46 H46        -4.1882    2.3230   47.5671 H       1  ZINC000008416770    0.1300
     47 H47        -2.4672    1.2279   46.1900 H       1  ZINC000008416770    0.1300
     48 H48         0.6276    1.1549   46.4990 H       1  ZINC000008416770    0.0700
     49 H49         0.5882   -0.2627   47.5748 H       1  ZINC000008416770    0.0700
     50 H50        -0.4959   -0.1848   46.1651 H       1  ZINC000008416770    0.0700
     51 H51         0.1306    1.0418   49.5679 H       1  ZINC000008416770    0.1300
     52 H52        -1.5812    2.1426   50.9519 H       1  ZINC000008416770    0.1300
     53 H53       -12.5920   -0.6128   54.3717 H       1  ZINC000008416770    0.1400
     54 H54       -14.2175   -1.9575   55.6301 H       1  ZINC000008416770    0.1400
@<TRIPOS>BOND
     1     1     2    1
     2     1    31    1
     3     1    32    1
     4     1    33    1
     5     2     3    1
     6     2    34    1
     7     2    35    1
     8     3     4    1
     9     4     5    2
    10     4     6    1
    11     6    30   ar
    12     6     7   ar
    13     7     8   ar
    14     7    36    1
    15     8     9   ar
    16     8    37    1
    17     9    10    1
    18     9    29   ar
    19    10    11   am
    20    10    38    1
    21    11    12    2
    22    11    13    1
    23    13    14    1
    24    13    39    1
    25    13    40    1
    26    14    15    1
    27    14    41    1
    28    14    42    1
    29    15    16    2
    30    15    17    1
    31    17    18    1
    32    18    19    1
    33    18    43    1
    34    18    44    1
    35    19    20    2
    36    19    21   am
    37    21    22    1
    38    21    45    1
    39    22    28   ar
    40    22    23   ar
    41    23    24   ar
    42    23    46    1
    43    24    25   ar
    44    24    47    1
    45    25    26    1
    46    25    27   ar
    47    26    48    1
    48    26    49    1
    49    26    50    1
    50    27    28   ar
    51    27    51    1
    52    28    52    1
    53    29    30   ar
    54    29    53    1
    55    30    54    1
@<TRIPOS>SUBSTRUCTURE
     1 ZINC000008416770        1 TEMP              0 ****  ****    0 ROOT


##########                                Name:    ZINC000590699876
##########                DOCK_Rotatable_Bonds:                   9
##########                         Heavy_Atoms:                  30
##########                    Molecular_Weight:              421.54
##########                DOCK_Rotatable_Bonds:                   9
##########                       Formal_Charge:          -0.0300004
##########                     HBond_Acceptors:                   9
##########                        HBond_Donors:                   1
##########                         Heavy_Atoms:                  30
##########                          Grid_Score:          -33.170860
##########                     Grid_vdw_energy:          -32.515354
##########                      Grid_es_energy:           -0.655507
##########           Internal_energy_repulsive:          102.797821

@<TRIPOS>MOLECULE
ZINC000590699876
 65 67 1 0 0
SMALL
USER_CHARGES


@<TRIPOS>ATOM
      1 C1         -8.8376   -5.0515   58.1283 C.3     1  ZINC000590699876   -0.1700
      2 C2         -9.6700   -3.9562   57.5132 C.2     1  ZINC000590699876    0.5100
      3 O3         -9.3453   -3.4725   56.4496 O.2     1  ZINC000590699876   -0.5500
      4 N4        -10.7754   -3.5143   58.1451 N.am    1  ZINC000590699876   -0.7200
      5 C5        -11.5857   -2.4507   57.5462 C.3     1  ZINC000590699876    0.1100
      6 C6        -13.0195   -2.6045   57.9839 C.2     1  ZINC000590699876    0.5300
      7 O7        -13.2765   -3.1390   59.0418 O.2     1  ZINC000590699876   -0.5200
      8 N8        -14.0161   -2.1483   57.1997 N.am    1  ZINC000590699876   -0.6000
      9 C9        -15.4562   -2.2328   57.5040 C.3     1  ZINC000590699876    0.1000
     10 C10       -16.1021   -1.0864   56.6865 C.3     1  ZINC000590699876   -0.1300
     11 C11       -15.2555   -1.1155   55.3866 C.3     1  ZINC000590699876   -0.1300
     12 C12       -13.8469   -1.4784   55.9020 C.3     1  ZINC000590699876    0.1200
     13 H13       -13.3592   -2.1561   55.2014 H       1  ZINC000590699876    0.1000
     14 C14       -13.0221   -0.2276   56.0632 C.2     1  ZINC000590699876    0.5100
     15 O15       -12.8876    0.2729   57.1598 O.2     1  ZINC000590699876   -0.5200
     16 N16       -12.4339    0.3350   54.9890 N.am    1  ZINC000590699876   -0.6100
     17 C17       -11.6183    1.5513   55.1255 C.3     1  ZINC000590699876    0.1000
     18 C18       -10.2667    1.3099   54.4449 C.3     1  ZINC000590699876    0.0400
     19 N19       -10.4905    0.8638   53.0633 N.3     1  ZINC000590699876   -0.5200
     20 C20        -9.2238    0.7865   52.3234 C.3     1  ZINC000590699876    0.0400
     21 C21        -9.0604    2.0221   51.4766 C.2     1  ZINC000590699876    0.5200
     22 O22        -9.9109    2.8866   51.4948 O.2     1  ZINC000590699876   -0.5100
     23 N23        -7.9691    2.1668   50.6990 N.am    1  ZINC000590699876   -0.6100
     24 C24        -6.9302    1.1284   50.6663 C.3     1  ZINC000590699876    0.1100
     25 C25        -5.5755    1.7766   50.9686 C.3     1  ZINC000590699876   -0.1400
     26 C26        -5.3391    2.9330   49.9944 C.3     1  ZINC000590699876   -0.1200
     27 C27        -6.4316    3.9888   50.1786 C.3     1  ZINC000590699876   -0.1300
     28 C28        -7.7987    3.3631   49.8631 C.3     1  ZINC000590699876    0.1400
     29 H29        -7.8402    3.0879   48.8092 H       1  ZINC000590699876    0.0700
     30 C30        -8.9078    4.3700   50.1744 C.3     1  ZINC000590699876   -0.1400
     31 C31       -11.2007   -0.4215   53.0268 C.3     1  ZINC000590699876    0.0400
     32 C32       -12.5856   -0.2546   53.6501 C.3     1  ZINC000590699876    0.1200
     33 H33        -7.9915   -5.2735   57.4782 H       1  ZINC000590699876    0.1000
     34 H34        -8.4720   -4.7266   59.1024 H       1  ZINC000590699876    0.0900
     35 H35        -9.4474   -5.9469   58.2495 H       1  ZINC000590699876    0.0900
     36 H36       -11.0345   -3.9004   58.9963 H       1  ZINC000590699876    0.4100
     37 H37       -11.2089   -1.4806   57.8704 H       1  ZINC000590699876    0.1000
     38 H38       -11.5281   -2.5182   56.4598 H       1  ZINC000590699876    0.1000
     39 H39       -15.8550   -3.1964   57.1867 H       1  ZINC000590699876    0.0800
     40 H40       -15.6281   -2.0824   58.5697 H       1  ZINC000590699876    0.0800
     41 H41       -17.1499   -1.2996   56.4751 H       1  ZINC000590699876    0.0900
     42 H42       -15.9954   -0.1314   57.2010 H       1  ZINC000590699876    0.0800
     43 H43       -15.6274   -1.8769   54.7010 H       1  ZINC000590699876    0.1000
     44 H44       -15.2482   -0.1356   54.9092 H       1  ZINC000590699876    0.0900
     45 H45       -12.1257    2.3881   54.6455 H       1  ZINC000590699876    0.0800
     46 H46       -11.4625    1.7711   56.1816 H       1  ZINC000590699876    0.0900
     47 H47        -9.6917    2.2359   54.4396 H       1  ZINC000590699876    0.0900
     48 H48        -9.7167    0.5429   54.9903 H       1  ZINC000590699876    0.0400
     49 H49        -8.3951    0.7166   53.0280 H       1  ZINC000590699876    0.1000
     50 H50        -9.2307   -0.0951   51.6823 H       1  ZINC000590699876    0.0600
     51 H51        -7.1481    0.3698   51.4180 H       1  ZINC000590699876    0.0800
     52 H52        -6.9033    0.6694   49.6781 H       1  ZINC000590699876    0.0700
     53 H53        -5.5735    2.1557   51.9906 H       1  ZINC000590699876    0.0700
     54 H54        -4.7840    1.0361   50.8532 H       1  ZINC000590699876    0.0800
     55 H55        -4.3649    3.3804   50.1913 H       1  ZINC000590699876    0.0700
     56 H56        -5.3658    2.5574   48.9716 H       1  ZINC000590699876    0.0600
     57 H57        -6.4216    4.3470   51.2080 H       1  ZINC000590699876    0.0700
     58 H58        -6.2494    4.8228   49.5008 H       1  ZINC000590699876    0.0700
     59 H59        -8.7349    5.2868   49.6106 H       1  ZINC000590699876    0.0400
     60 H60        -9.8721    3.9470   49.8931 H       1  ZINC000590699876    0.0700
     61 H61        -8.9064    4.5939   51.2411 H       1  ZINC000590699876    0.0700
     62 H62       -11.3032   -0.7513   51.9929 H       1  ZINC000590699876    0.1100
     63 H63       -10.6378   -1.1644   53.5919 H       1  ZINC000590699876    0.0300
     64 H64       -13.0711   -1.2272   53.7294 H       1  ZINC000590699876    0.0900
     65 H65       -13.1885    0.4092   53.0304 H       1  ZINC000590699876    0.0800
@<TRIPOS>BOND
     1     1     2    1
     2     1    33    1
     3     1    34    1
     4     1    35    1
     5     2     3    2
     6     2     4   am
     7     4     5    1
     8     4    36    1
     9     5     6    1
    10     5    37    1
    11     5    38    1
    12     6     7    2
    13     6     8   am
    14     8    12    1
    15     8     9    1
    16     9    10    1
    17     9    39    1
    18     9    40    1
    19    10    11    1
    20    10    41    1
    21    10    42    1
    22    11    12    1
    23    11    43    1
    24    11    44    1
    25    12    13    1
    26    12    14    1
    27    14    15    2
    28    14    16   am
    29    16    32    1
    30    16    17    1
    31    17    18    1
    32    17    45    1
    33    17    46    1
    34    18    19    1
    35    18    47    1
    36    18    48    1
    37    19    20    1
    38    19    31    1
    39    20    21    1
    40    20    49    1
    41    20    50    1
    42    21    22    2
    43    21    23   am
    44    23    28    1
    45    23    24    1
    46    24    25    1
    47    24    51    1
    48    24    52    1
    49    25    26    1
    50    25    53    1
    51    25    54    1
    52    26    27    1
    53    26    55    1
    54    26    56    1
    55    27    28    1
    56    27    57    1
    57    27    58    1
    58    28    29    1
    59    28    30    1
    60    30    59    1
    61    30    60    1
    62    30    61    1
    63    31    32    1
    64    31    62    1
    65    31    63    1
    66    32    64    1
    67    32    65    1
@<TRIPOS>SUBSTRUCTURE
     1 ZINC000590699876        1 TEMP              0 ****  ****    0 ROOT


##########                                Name:    ZINC000474368324
##########                DOCK_Rotatable_Bonds:                   9
##########                         Heavy_Atoms:                  27
##########                    Molecular_Weight:             417.332
##########                DOCK_Rotatable_Bonds:                   9
##########                       Formal_Charge:        -1.63913e-07
##########                     HBond_Acceptors:                   8
##########                        HBond_Donors:                   1
##########                         Heavy_Atoms:                  27
##########                          Grid_Score:          -33.156170
##########                     Grid_vdw_energy:          -32.303455
##########                      Grid_es_energy:           -0.852714
##########           Internal_energy_repulsive:           24.949587

@<TRIPOS>MOLECULE
ZINC000474368324
 53 54 1 0 0
SMALL
USER_CHARGES


@<TRIPOS>ATOM
      1 C1        -10.4573    4.7140   48.7480 C.3     1  ZINC000474368324   -0.1500
      2 C2         -9.3365    4.8789   49.7764 C.3     1  ZINC000474368324    0.0600
      3 O3         -8.1096    4.3069   49.2510 O.3     1  ZINC000474368324   -0.3300
      4 C4         -7.0579    4.2515   50.0832 C.2     1  ZINC000474368324    0.4700
      5 O5         -6.2677    5.1648   50.1199 O.2     1  ZINC000474368324   -0.5100
      6 C6         -6.8627    3.0501   50.9718 C.3     1  ZINC000474368324   -0.0400
      7 C7         -5.4210    2.5530   50.8475 C.3     1  ZINC000474368324    0.0600
      8 O8         -5.1665    2.1627   49.4966 O.3     1  ZINC000474368324   -0.3700
      9 C9         -3.9809    2.7342   48.9401 C.3     1  ZINC000474368324    0.0300
     10 C10        -7.1438    3.4396   52.4249 C.3     1  ZINC000474368324   -0.1200
     11 C11        -6.9109    2.2252   53.3291 C.3     1  ZINC000474368324    0.1100
     12 N12        -7.7248    1.1056   52.8362 N.am    1  ZINC000474368324   -0.6300
     13 C13        -8.5711    0.4568   53.6603 C.2     1  ZINC000474368324    0.7100
     14 O14        -9.2392   -0.4682   53.2403 O.2     1  ZINC000474368324   -0.5800
     15 N15        -8.6770    0.8334   54.9501 N.am    1  ZINC000474368324   -0.7400
     16 C16        -9.5970    0.1282   55.8459 C.3     1  ZINC000474368324    0.2000
     17 H17       -10.2408   -0.5292   55.2616 H       1  ZINC000474368324    0.1100
     18 C18       -10.4562    1.1460   56.5987 C.3     1  ZINC000474368324   -0.1600
     19 C19        -8.8070   -0.6908   56.8340 C.ar    1  ZINC000474368324   -0.0700
     20 C20        -7.8118   -0.0955   57.5857 C.ar    1  ZINC000474368324   -0.1000
     21 C21        -7.0869   -0.8461   58.4929 C.ar    1  ZINC000474368324   -0.0900
     22 C22        -7.3566   -2.1925   58.6488 C.ar    1  ZINC000474368324   -0.1000
     23 C23        -8.3525   -2.7902   57.8970 C.ar    1  ZINC000474368324   -0.0300
     24 Cl24       -8.6917   -4.4814   58.0925 Cl      1  ZINC000474368324   -0.0400
     25 C25        -9.0819   -2.0374   56.9926 C.ar    1  ZINC000474368324   -0.0300
     26 Cl26      -10.3323   -2.7856   56.0489 Cl      1  ZINC000474368324   -0.0400
     27 C27        -7.5987    0.7070   51.4276 C.3     1  ZINC000474368324    0.1300
     28 C28        -7.8240    1.9385   50.5447 C.3     1  ZINC000474368324   -0.1200
     29 H29       -11.3783    5.1433   49.1424 H       1  ZINC000474368324    0.0800
     30 H30       -10.1830    5.2269   47.8262 H       1  ZINC000474368324    0.0700
     31 H31       -10.6091    3.6543   48.5428 H       1  ZINC000474368324    0.0700
     32 H32        -9.1847    5.9386   49.9816 H       1  ZINC000474368324    0.0700
     33 H33        -9.6108    4.3659   50.6981 H       1  ZINC000474368324    0.0700
     34 H34        -4.7356    3.3519   51.1302 H       1  ZINC000474368324    0.0700
     35 H35        -5.2737    1.6974   51.5067 H       1  ZINC000474368324    0.0600
     36 H36        -4.0618    3.8212   48.9510 H       1  ZINC000474368324    0.0400
     37 H37        -3.1179    2.4282   49.5313 H       1  ZINC000474368324    0.0400
     38 H38        -3.8586    2.3894   47.9133 H       1  ZINC000474368324    0.0900
     39 H39        -6.4746    4.2474   52.7210 H       1  ZINC000474368324    0.1000
     40 H40        -8.1781    3.7704   52.5192 H       1  ZINC000474368324    0.0800
     41 H41        -5.8568    1.9488   53.3055 H       1  ZINC000474368324    0.0800
     42 H42        -7.2043    2.4683   54.3503 H       1  ZINC000474368324    0.0800
     43 H43        -8.1440    1.5713   55.2852 H       1  ZINC000474368324    0.3900
     44 H44        -9.8124    1.8034   57.1831 H       1  ZINC000474368324    0.0600
     45 H45       -11.0275    1.7385   55.8841 H       1  ZINC000474368324    0.0700
     46 H46       -11.1407    0.6214   57.2653 H       1  ZINC000474368324    0.0700
     47 H47        -7.6001    0.9566   57.4644 H       1  ZINC000474368324    0.1300
     48 H48        -6.3091   -0.3799   59.0797 H       1  ZINC000474368324    0.1400
     49 H49        -6.7897   -2.7784   59.3573 H       1  ZINC000474368324    0.1500
     50 H50        -6.6007    0.3068   51.2490 H       1  ZINC000474368324    0.0700
     51 H51        -8.3460   -0.0515   51.1942 H       1  ZINC000474368324    0.1100
     52 H52        -8.8518    2.2834   50.6568 H       1  ZINC000474368324    0.0900
     53 H53        -7.6388    1.6778   49.5027 H       1  ZINC000474368324    0.0900
@<TRIPOS>BOND
     1     1     2    1
     2     1    29    1
     3     1    30    1
     4     1    31    1
     5     2     3    1
     6     2    32    1
     7     2    33    1
     8     3     4    1
     9     4     5    2
    10     4     6    1
    11     6    28    1
    12     6     7    1
    13     6    10    1
    14     7     8    1
    15     7    34    1
    16     7    35    1
    17     8     9    1
    18     9    36    1
    19     9    37    1
    20     9    38    1
    21    10    11    1
    22    10    39    1
    23    10    40    1
    24    11    12    1
    25    11    41    1
    26    11    42    1
    27    12    13   am
    28    12    27    1
    29    13    14    2
    30    13    15   am
    31    15    16    1
    32    15    43    1
    33    16    17    1
    34    16    18    1
    35    16    19    1
    36    18    44    1
    37    18    45    1
    38    18    46    1
    39    19    25   ar
    40    19    20   ar
    41    20    21   ar
    42    20    47    1
    43    21    22   ar
    44    21    48    1
    45    22    23   ar
    46    22    49    1
    47    23    24    1
    48    23    25   ar
    49    25    26    1
    50    27    28    1
    51    27    50    1
    52    27    51    1
    53    28    52    1
    54    28    53    1
@<TRIPOS>SUBSTRUCTURE
     1 ZINC000474368324        1 TEMP              0 ****  ****    0 ROOT


##########                                Name:    ZINC000672622940
##########                DOCK_Rotatable_Bonds:                   7
##########                         Heavy_Atoms:                  30
##########                    Molecular_Weight:             416.523
##########                DOCK_Rotatable_Bonds:                   7
##########                       Formal_Charge:          -0.0100002
##########                     HBond_Acceptors:                   9
##########                        HBond_Donors:                   1
##########                         Heavy_Atoms:                  30
##########                          Grid_Score:          -33.112598
##########                     Grid_vdw_energy:          -33.646843
##########                      Grid_es_energy:            0.534245
##########           Internal_energy_repulsive:           19.429846

@<TRIPOS>MOLECULE
ZINC000672622940
 62 65 1 0 0
SMALL
USER_CHARGES


@<TRIPOS>ATOM
      1 C1         -3.8533    4.9412   51.1522 C.3     1  ZINC000672622940    0.0800
      2 N2         -3.8528    3.8383   50.1880 N.am    1  ZINC000672622940   -0.6200
      3 C3         -2.7254    3.6705   49.2676 C.3     1  ZINC000672622940    0.0700
      4 C4         -4.8896    2.9781   50.1476 C.2     1  ZINC000672622940    0.5200
      5 O5         -4.8886    2.0642   49.3503 O.2     1  ZINC000672622940   -0.5300
      6 C6         -6.0501    3.1519   51.0932 C.3     1  ZINC000672622940   -0.1000
      7 H7         -6.1760    4.2098   51.3233 H       1  ZINC000672622940    0.1000
      8 C8         -7.3255    2.6170   50.4390 C.3     1  ZINC000672622940   -0.1300
      9 C9         -8.5037    2.7934   51.3990 C.3     1  ZINC000672622940   -0.1100
     10 C10        -8.2297    2.0197   52.6902 C.3     1  ZINC000672622940   -0.1300
     11 C11        -6.9542    2.5547   53.3444 C.3     1  ZINC000672622940    0.1400
     12 H12        -7.0802    3.6126   53.5746 H       1  ZINC000672622940    0.1000
     13 N13        -6.6919    1.8138   54.5808 N.am    1  ZINC000672622940   -0.6900
     14 C14        -7.3154    2.1659   55.7226 C.2     1  ZINC000672622940    0.5100
     15 O15        -8.0954    3.0956   55.7261 O.2     1  ZINC000672622940   -0.5100
     16 C16        -7.0464    1.4114   56.9842 C.2     1  ZINC000672622940    0.5100
     17 O17        -6.2424    1.8380   57.7867 O.2     1  ZINC000672622940   -0.5200
     18 N18        -7.6970    0.2569   57.2307 N.am    1  ZINC000672622940   -0.5800
     19 C19        -7.4477   -0.4930   58.4693 C.3     1  ZINC000672622940    0.0700
     20 C20        -8.7863   -0.7469   59.1698 C.3     1  ZINC000672622940   -0.1200
     21 C21        -9.7431   -1.4401   58.1971 C.3     1  ZINC000672622940    0.0000
     22 C22       -11.0495   -1.7222   58.8933 C.2     1  ZINC000672622940    0.2000
     23 N23       -11.4536   -1.2032   60.0204 N.2     1  ZINC000672622940   -0.2800
     24 N24       -12.6156   -1.6661   60.3180 N.2     1  ZINC000672622940   -0.2800
     25 C25       -13.0056   -2.5018   59.3921 C.2     1  ZINC000672622940    0.1500
     26 C26       -14.1487   -3.4101   58.9940 C.3     1  ZINC000672622940   -0.0400
     27 C27       -13.9008   -3.7001   57.4960 C.3     1  ZINC000672622940   -0.1300
     28 C28       -12.3755   -3.4879   57.3811 C.3     1  ZINC000672622940    0.1000
     29 N29       -12.0264   -2.5581   58.4620 N.pl3   1  ZINC000672622940   -0.4900
     30 C30        -9.9936   -0.5318   56.9911 C.3     1  ZINC000672622940   -0.1200
     31 C31        -8.6733   -0.2723   56.2688 C.3     1  ZINC000672622940    0.1100
     32 C32        -5.7761    2.3783   52.3844 C.3     1  ZINC000672622940   -0.1100
     33 H33        -4.3251    5.8156   50.7040 H       1  ZINC000672622940    0.0600
     34 H34        -4.4081    4.6453   52.0425 H       1  ZINC000672622940    0.0800
     35 H35        -2.8268    5.1834   51.4277 H       1  ZINC000672622940    0.0700
     36 H36        -1.9741    3.0280   49.7268 H       1  ZINC000672622940    0.0600
     37 H37        -3.0769    3.2145   48.3420 H       1  ZINC000672622940    0.0800
     38 H38        -2.2866    4.6441   49.0493 H       1  ZINC000672622940    0.0700
     39 H39        -7.5208    3.1682   49.5191 H       1  ZINC000672622940    0.0800
     40 H40        -7.1996    1.5589   50.2089 H       1  ZINC000672622940    0.0700
     41 H41        -8.6296    3.8513   51.6292 H       1  ZINC000672622940    0.0700
     42 H42        -9.4123    2.4122   50.9329 H       1  ZINC000672622940    0.0700
     43 H43        -9.0690    2.1453   53.3742 H       1  ZINC000672622940    0.0700
     44 H44        -8.1037    0.9617   52.4601 H       1  ZINC000672622940    0.0700
     45 H45        -6.0693    1.0700   54.5777 H       1  ZINC000672622940    0.4100
     46 H46        -6.9737   -1.4451   58.2308 H       1  ZINC000672622940    0.0700
     47 H47        -6.7974    0.0877   59.1235 H       1  ZINC000672622940    0.1400
     48 H48        -8.6266   -1.3844   60.0394 H       1  ZINC000672622940    0.0800
     49 H49        -9.2161    0.2028   59.4882 H       1  ZINC000672622940    0.0800
     50 H50        -9.3016   -2.3778   57.8596 H       1  ZINC000672622940    0.0900
     51 H51       -14.1201   -4.3345   59.5710 H       1  ZINC000672622940    0.1000
     52 H52       -15.1039   -2.9033   59.1313 H       1  ZINC000672622940    0.1000
     53 H53       -14.1716   -4.7262   57.2474 H       1  ZINC000672622940    0.1100
     54 H54       -14.4413   -2.9924   56.8672 H       1  ZINC000672622940    0.0900
     55 H55       -11.8525   -4.4356   57.5099 H       1  ZINC000672622940    0.1000
     56 H56       -12.1279   -3.0483   56.4149 H       1  ZINC000672622940    0.1000
     57 H57       -10.6934   -1.0161   56.3100 H       1  ZINC000672622940    0.0800
     58 H58       -10.4122    0.4159   57.3302 H       1  ZINC000672622940    0.0800
     59 H59        -8.8303    0.4521   55.4695 H       1  ZINC000672622940    0.1000
     60 H60        -8.2962   -1.2054   55.8501 H       1  ZINC000672622940    0.0800
     61 H61        -5.6501    1.3203   52.1543 H       1  ZINC000672622940    0.0800
     62 H62        -4.8674    2.7594   52.8505 H       1  ZINC000672622940    0.0800
@<TRIPOS>BOND
     1     1     2    1
     2     1    33    1
     3     1    34    1
     4     1    35    1
     5     2     3    1
     6     2     4   am
     7     3    36    1
     8     3    37    1
     9     3    38    1
    10     4     5    2
    11     4     6    1
    12     6     7    1
    13     6    32    1
    14     6     8    1
    15     8     9    1
    16     8    39    1
    17     8    40    1
    18     9    10    1
    19     9    41    1
    20     9    42    1
    21    10    11    1
    22    10    43    1
    23    10    44    1
    24    11    12    1
    25    11    13    1
    26    11    32    1
    27    13    14   am
    28    13    45    1
    29    14    15    2
    30    14    16    1
    31    16    17    2
    32    16    18   am
    33    18    31    1
    34    18    19    1
    35    19    20    1
    36    19    46    1
    37    19    47    1
    38    20    21    1
    39    20    48    1
    40    20    49    1
    41    21    22    1
    42    21    30    1
    43    21    50    1
    44    22    29    1
    45    22    23    2
    46    23    24    1
    47    24    25    2
    48    25    29    1
    49    25    26    1
    50    26    27    1
    51    26    51    1
    52    26    52    1
    53    27    28    1
    54    27    53    1
    55    27    54    1
    56    28    29    1
    57    28    55    1
    58    28    56    1
    59    30    31    1
    60    30    57    1
    61    30    58    1
    62    31    59    1
    63    31    60    1
    64    32    61    1
    65    32    62    1
@<TRIPOS>SUBSTRUCTURE
     1 ZINC000672622940        1 TEMP              0 ****  ****    0 ROOT


##########                                Name:    ZINC000821177065
##########                DOCK_Rotatable_Bonds:                  10
##########                         Heavy_Atoms:                  25
##########                    Molecular_Weight:             341.413
##########                DOCK_Rotatable_Bonds:                  10
##########                       Formal_Charge:          0.00999917
##########                     HBond_Acceptors:                   7
##########                        HBond_Donors:                   3
##########                         Heavy_Atoms:                  25
##########                          Grid_Score:          -33.043991
##########                     Grid_vdw_energy:          -31.747711
##########                      Grid_es_energy:           -1.296278
##########           Internal_energy_repulsive:           20.024771

@<TRIPOS>MOLECULE
ZINC000821177065
 48 51 1 0 0
SMALL
USER_CHARGES


@<TRIPOS>ATOM
      1 O1         -8.4487   -0.6525   52.6526 O.2     1  ZINC000821177065   -0.5600
      2 C2         -8.4624    0.5204   52.9728 C.2     1  ZINC000821177065    0.7100
      3 N3         -7.7572    1.4216   52.2606 N.am    1  ZINC000821177065   -0.7300
      4 C4         -6.9695    0.9869   51.1043 C.3     1  ZINC000821177065    0.1200
      5 C5         -5.8768    2.0181   50.8148 C.3     1  ZINC000821177065    0.1900
      6 O6         -5.4141    1.8577   49.4724 O.3     1  ZINC000821177065   -0.5400
      7 C7         -6.4452    3.4273   50.9935 C.3     1  ZINC000821177065   -0.1500
      8 C8         -6.0073    4.4979   49.9920 C.3     1  ZINC000821177065   -0.1600
      9 C9         -7.4278    3.9322   49.9349 C.3     1  ZINC000821177065   -0.1700
     10 C10        -4.7112    1.8117   51.7842 C.3     1  ZINC000821177065   -0.1800
     11 C11        -4.0056    3.0603   52.3168 C.3     1  ZINC000821177065   -0.1900
     12 C12        -4.9157    2.2447   53.2373 C.3     1  ZINC000821177065   -0.1700
     13 N13        -9.1869    0.9203   54.0364 N.am    1  ZINC000821177065   -0.6500
     14 C14        -9.9205   -0.0171   54.7772 C.2     1  ZINC000821177065    0.3200
     15 N15        -9.6548   -0.4112   56.0002 N.2     1  ZINC000821177065   -0.3200
     16 N16       -10.6222   -1.3518   56.3760 N.pl3   1  ZINC000821177065   -0.3600
     17 C17       -10.6954   -2.0428   57.6656 C.3     1  ZINC000821177065    0.1900
     18 C18        -9.3523   -2.6440   57.9904 C.ar    1  ZINC000821177065    0.1100
     19 C19        -8.3459   -1.8387   58.4884 C.ar    1  ZINC000821177065   -0.1500
     20 C20        -7.1138   -2.4018   58.7844 C.ar    1  ZINC000821177065   -0.0700
     21 C21        -6.9398   -3.7599   58.5672 C.ar    1  ZINC000821177065   -0.1700
     22 C22        -7.9928   -4.5022   58.0665 C.ar    1  ZINC000821177065    0.1000
     23 N23        -9.1526   -3.9339   57.8010 N.ar    1  ZINC000821177065   -0.4700
     24 C24       -11.4756   -1.5097   55.3423 C.2     1  ZINC000821177065    0.0700
     25 C25       -11.0713   -0.6937   54.3424 C.2     1  ZINC000821177065   -0.2600
     26 H26        -7.7713    2.3579   52.5135 H       1  ZINC000821177065    0.4000
     27 H27        -6.5105    0.0219   51.3193 H       1  ZINC000821177065    0.0700
     28 H28        -7.6208    0.8940   50.2352 H       1  ZINC000821177065    0.0800
     29 H29        -4.9914    1.0051   49.3012 H       1  ZINC000821177065    0.3800
     30 H30        -6.6115    3.7399   52.0244 H       1  ZINC000821177065    0.1100
     31 H31        -5.8853    5.5152   50.3640 H       1  ZINC000821177065    0.0900
     32 H32        -5.3144    4.1983   49.2058 H       1  ZINC000821177065    0.1100
     33 H33        -7.6693    3.2604   49.1113 H       1  ZINC000821177065    0.1000
     34 H34        -8.2403    4.5773   50.2694 H       1  ZINC000821177065    0.0900
     35 H35        -4.1010    0.9267   51.6039 H       1  ZINC000821177065    0.1100
     36 H36        -2.9308    2.9972   52.4869 H       1  ZINC000821177065    0.1000
     37 H37        -4.3718    4.0290   51.9766 H       1  ZINC000821177065    0.1100
     38 H38        -5.8805    2.6767   53.5028 H       1  ZINC000821177065    0.0900
     39 H39        -4.4396    1.6448   54.0130 H       1  ZINC000821177065    0.1000
     40 H40        -9.2010    1.8567   54.2894 H       1  ZINC000821177065    0.4100
     41 H41       -10.9728   -1.3317   58.4437 H       1  ZINC000821177065    0.1000
     42 H42       -11.4440   -2.8334   57.6123 H       1  ZINC000821177065    0.1200
     43 H43        -8.5167   -0.7837   58.6448 H       1  ZINC000821177065    0.1400
     44 H44        -6.3087   -1.7967   59.1745 H       1  ZINC000821177065    0.1400
     45 H45        -5.9934   -4.2319   58.7862 H       1  ZINC000821177065    0.1400
     46 H46        -7.8652   -5.5608   57.8941 H       1  ZINC000821177065    0.1600
     47 H47       -12.3319   -2.1673   55.3195 H       1  ZINC000821177065    0.1800
     48 H48       -11.5452   -0.5870   53.3778 H       1  ZINC000821177065    0.1700
@<TRIPOS>BOND
     1     1     2    2
     2     2     3   am
     3     2    13   am
     4     3     4    1
     5     3    26    1
     6     4     5    1
     7     4    27    1
     8     4    28    1
     9     5     6    1
    10     5     7    1
    11     5    10    1
    12     6    29    1
    13     7     9    1
    14     7     8    1
    15     7    30    1
    16     8     9    1
    17     8    31    1
    18     8    32    1
    19     9    33    1
    20     9    34    1
    21    10    12    1
    22    10    11    1
    23    10    35    1
    24    11    12    1
    25    11    36    1
    26    11    37    1
    27    12    38    1
    28    12    39    1
    29    13    14    1
    30    13    40    1
    31    14    25    1
    32    14    15    2
    33    15    16    1
    34    16    17    1
    35    16    24    1
    36    17    18    1
    37    17    41    1
    38    17    42    1
    39    18    23   ar
    40    18    19   ar
    41    19    20   ar
    42    19    43    1
    43    20    21   ar
    44    20    44    1
    45    21    22   ar
    46    21    45    1
    47    22    23   ar
    48    22    46    1
    49    24    25    2
    50    24    47    1
    51    25    48    1
@<TRIPOS>SUBSTRUCTURE
     1 ZINC000821177065        1 TEMP              0 ****  ****    0 ROOT


##########                                Name:    ZINC000929592477
##########                DOCK_Rotatable_Bonds:                   7
##########                         Heavy_Atoms:                  28
##########                    Molecular_Weight:             399.517
##########                DOCK_Rotatable_Bonds:                   7
##########                       Formal_Charge:         -8.9407e-08
##########                     HBond_Acceptors:                   8
##########                        HBond_Donors:                   3
##########                         Heavy_Atoms:                  28
##########                          Grid_Score:          -33.020069
##########                     Grid_vdw_energy:          -30.837580
##########                      Grid_es_energy:           -2.182489
##########           Internal_energy_repulsive:           12.603817

@<TRIPOS>MOLECULE
ZINC000929592477
 53 56 1 0 0
SMALL
USER_CHARGES


@<TRIPOS>ATOM
      1 O1         -8.1519    1.5396   54.4175 O.2     1  ZINC000929592477   -0.5700
      2 C2         -9.0804    1.1233   53.7517 C.2     1  ZINC000929592477    0.7100
      3 N3         -9.0415    1.2176   52.4079 N.am    1  ZINC000929592477   -0.6800
      4 C4         -7.9332    1.8008   51.7778 C.ar    1  ZINC000929592477    0.1600
      5 C5         -7.7938    3.1821   51.7571 C.ar    1  ZINC000929592477   -0.1300
      6 C6         -6.7028    3.7569   51.1364 C.ar    1  ZINC000929592477   -0.0800
      7 C7         -5.7440    2.9528   50.5327 C.ar    1  ZINC000929592477   -0.1000
      8 S8         -4.3509    3.6856   49.7410 S.3     1  ZINC000929592477   -0.1100
      9 C9         -3.3697    2.2484   49.2289 C.3     1  ZINC000929592477   -0.0800
     10 C10        -2.2175    2.6852   48.2905 C.3     1  ZINC000929592477   -0.1200
     11 C11        -1.1898    1.5380   48.4541 C.3     1  ZINC000929592477   -0.1200
     12 C12        -1.2662    1.1723   49.9508 C.3     1  ZINC000929592477   -0.1200
     13 C13        -2.6523    1.6239   50.4435 C.3     1  ZINC000929592477   -0.1000
     14 C14        -5.8835    1.5706   50.5541 C.ar    1  ZINC000929592477   -0.1200
     15 C15        -6.9722    0.9966   51.1796 C.ar    1  ZINC000929592477   -0.1000
     16 N16       -10.1459    0.5626   54.3574 N.am    1  ZINC000929592477   -0.7300
     17 C17       -10.1882    0.4601   55.8182 C.3     1  ZINC000929592477    0.1500
     18 H18        -9.8577    1.3912   56.2785 H       1  ZINC000929592477    0.1200
     19 C19        -9.3252   -0.7319   56.3100 C.3     1  ZINC000929592477   -0.1400
     20 C20       -10.3043   -1.9190   56.1318 C.3     1  ZINC000929592477    0.1100
     21 N21       -11.6264   -1.3752   56.4918 N.pl3   1  ZINC000929592477   -0.6000
     22 C22       -12.7048   -2.1118   56.9374 C.2     1  ZINC000929592477    0.4600
     23 C23       -12.7616   -2.5384   58.2538 C.2     1  ZINC000929592477   -0.4000
     24 C24       -13.8745   -3.2842   58.6662 C.2     1  ZINC000929592477    0.5300
     25 O25       -13.9660   -3.6802   59.8173 O.2     1  ZINC000929592477   -0.5500
     26 N26       -14.8429   -3.5560   57.7665 N.am    1  ZINC000929592477   -0.6400
     27 C27       -14.7351   -3.1151   56.4973 C.2     1  ZINC000929592477    0.4100
     28 N28       -13.7085   -2.4152   56.0994 N.2     1  ZINC000929592477   -0.5700
     29 C29       -11.6065    0.0869   56.2986 C.3     1  ZINC000929592477    0.1100
     30 H30        -9.7804    0.8819   51.8765 H       1  ZINC000929592477    0.4100
     31 H31        -8.5392    3.8071   52.2263 H       1  ZINC000929592477    0.1300
     32 H32        -6.5949    4.8313   51.1198 H       1  ZINC000929592477    0.1300
     33 H33        -4.0040    1.5096   48.7392 H       1  ZINC000929592477    0.1000
     34 H34        -2.5632    2.7500   47.2587 H       1  ZINC000929592477    0.0700
     35 H35        -1.7922    3.6343   48.6168 H       1  ZINC000929592477    0.0800
     36 H36        -1.4703    0.6838   47.8378 H       1  ZINC000929592477    0.0700
     37 H37        -0.1885    1.8832   48.1964 H       1  ZINC000929592477    0.0700
     38 H38        -1.1576    0.0952   50.0780 H       1  ZINC000929592477    0.0700
     39 H39        -0.4852    1.6946   50.5032 H       1  ZINC000929592477    0.0700
     40 H40        -2.5439    2.3655   51.2349 H       1  ZINC000929592477    0.0700
     41 H41        -3.2162    0.7661   50.8097 H       1  ZINC000929592477    0.0800
     42 H42        -5.1384    0.9452   50.0851 H       1  ZINC000929592477    0.1300
     43 H43        -7.0806   -0.0778   51.1966 H       1  ZINC000929592477    0.1400
     44 H44       -10.8848    0.2271   53.8261 H       1  ZINC000929592477    0.4000
     45 H45        -8.4407   -0.8577   55.6855 H       1  ZINC000929592477    0.0900
     46 H46        -9.0480   -0.6078   57.3568 H       1  ZINC000929592477    0.0900
     47 H47       -10.3032   -2.2594   55.0963 H       1  ZINC000929592477    0.0700
     48 H48       -10.0353   -2.7363   56.8009 H       1  ZINC000929592477    0.0800
     49 H49       -11.9672   -2.3022   58.9462 H       1  ZINC000929592477    0.1500
     50 H50       -15.6199   -4.0712   58.0344 H       1  ZINC000929592477    0.4200
     51 H51       -15.5210   -3.3436   55.7925 H       1  ZINC000929592477    0.2100
     52 H52       -11.8252    0.5883   57.2413 H       1  ZINC000929592477    0.0900
     53 H53       -12.3414    0.3713   55.5456 H       1  ZINC000929592477    0.0800
@<TRIPOS>BOND
     1     1     2    2
     2     2     3   am
     3     2    16   am
     4     3     4    1
     5     3    30    1
     6     4    15   ar
     7     4     5   ar
     8     5     6   ar
     9     5    31    1
    10     6     7   ar
    11     6    32    1
    12     7     8    1
    13     7    14   ar
    14     8     9    1
    15     9    13    1
    16     9    10    1
    17     9    33    1
    18    10    11    1
    19    10    34    1
    20    10    35    1
    21    11    12    1
    22    11    36    1
    23    11    37    1
    24    12    13    1
    25    12    38    1
    26    12    39    1
    27    13    40    1
    28    13    41    1
    29    14    15   ar
    30    14    42    1
    31    15    43    1
    32    16    17    1
    33    16    44    1
    34    17    18    1
    35    17    29    1
    36    17    19    1
    37    19    20    1
    38    19    45    1
    39    19    46    1
    40    20    21    1
    41    20    47    1
    42    20    48    1
    43    21    22    1
    44    21    29    1
    45    22    28    1
    46    22    23    2
    47    23    24    1
    48    23    49    1
    49    24    25    2
    50    24    26   am
    51    26    27    1
    52    26    50    1
    53    27    28    2
    54    27    51    1
    55    29    52    1
    56    29    53    1
@<TRIPOS>SUBSTRUCTURE
     1 ZINC000929592477        1 TEMP              0 ****  ****    0 ROOT


##########                                Name:    ZINC000499369364
##########                DOCK_Rotatable_Bonds:                   9
##########                         Heavy_Atoms:                  25
##########                    Molecular_Weight:             384.527
##########                DOCK_Rotatable_Bonds:                   9
##########                       Formal_Charge:        -5.88596e-07
##########                     HBond_Acceptors:                  10
##########                        HBond_Donors:                   1
##########                         Heavy_Atoms:                  25
##########                          Grid_Score:          -33.006992
##########                     Grid_vdw_energy:          -31.810802
##########                      Grid_es_energy:           -1.196191
##########           Internal_energy_repulsive:           25.384304

@<TRIPOS>MOLECULE
ZINC000499369364
 49 51 1 0 0
SMALL
USER_CHARGES


@<TRIPOS>ATOM
      1 C1         -6.7027    1.5406   57.3907 C.3     1  ZINC000499369364   -0.1500
      2 C2         -6.9273    3.0061   57.0123 C.3     1  ZINC000499369364   -0.1000
      3 C3         -6.4031    3.9079   58.1315 C.3     1  ZINC000499369364   -0.1500
      4 C4         -6.1802    3.3177   55.7140 C.3     1  ZINC000499369364    0.1500
      5 H5         -6.3495    4.3586   55.4382 H       1  ZINC000499369364    0.0900
      6 C6         -4.6825    3.0813   55.9181 C.3     1  ZINC000499369364   -0.1700
      7 N7         -6.6716    2.4434   54.6460 N.am    1  ZINC000499369364   -0.7200
      8 C8         -6.7011    2.8856   53.3732 C.2     1  ZINC000499369364    0.5100
      9 O9         -6.3196    4.0068   53.1117 O.2     1  ZINC000499369364   -0.5100
     10 C10        -7.2082    1.9870   52.2749 C.3     1  ZINC000499369364    0.1200
     11 H11        -7.0349    0.9503   52.5636 H       1  ZINC000499369364    0.1200
     12 C12        -8.7291    2.2101   52.1127 C.3     1  ZINC000499369364   -0.0800
     13 S13        -8.7733    3.3827   50.6927 S.3     1  ZINC000499369364   -0.2400
     14 C14        -7.2698    2.6763   49.8997 C.3     1  ZINC000499369364    0.1400
     15 N15        -6.4590    2.2656   51.0591 N.am    1  ZINC000499369364   -0.6000
     16 C16        -5.1174    2.1525   50.9992 C.2     1  ZINC000499369364    0.5600
     17 O17        -4.4932    1.8097   51.9810 O.2     1  ZINC000499369364   -0.5000
     18 C18        -4.3927    2.4521   49.7123 C.3     1  ZINC000499369364   -0.1500
     19 S19        -2.8785    1.4639   49.6284 S.3     1  ZINC000499369364    0.1300
     20 C20        -2.5563    1.5440   47.8980 C.2     1  ZINC000499369364    0.2000
     21 N21        -3.3268    2.0932   46.9841 N.2     1  ZINC000499369364   -0.3400
     22 N22        -2.7963    1.9780   45.8203 N.2     1  ZINC000499369364   -0.0300
     23 N23        -1.6687    1.3586   45.9011 N.2     1  ZINC000499369364   -0.0800
     24 N24        -1.4663    1.0570   47.2593 N.pl3   1  ZINC000499369364   -0.3300
     25 C25        -0.3250    0.3578   47.8547 C.3     1  ZINC000499369364    0.0500
     26 C26         1.0121    0.4296   47.1143 C.3     1  ZINC000499369364   -0.1500
     27 C27         0.8141    1.2128   48.4138 C.3     1  ZINC000499369364   -0.1600
     28 H28        -7.2349    1.3186   58.3157 H       1  ZINC000499369364    0.0600
     29 H29        -7.0762    0.8982   56.5934 H       1  ZINC000499369364    0.0600
     30 H30        -5.6370    1.3613   57.5327 H       1  ZINC000499369364    0.0600
     31 H31        -7.9931    3.1854   56.8704 H       1  ZINC000499369364    0.0800
     32 H32        -6.9352    3.6858   59.0565 H       1  ZINC000499369364    0.0600
     33 H33        -5.3373    3.7286   58.2735 H       1  ZINC000499369364    0.0600
     34 H34        -6.5630    4.9519   57.8619 H       1  ZINC000499369364    0.0500
     35 H35        -4.5132    2.0404   56.1939 H       1  ZINC000499369364    0.0600
     36 H36        -4.1502    3.3032   54.9931 H       1  ZINC000499369364    0.0600
     37 H37        -4.3168    3.7317   56.7127 H       1  ZINC000499369364    0.0700
     38 H38        -6.9756    1.5463   54.8550 H       1  ZINC000499369364    0.4000
     39 H39        -9.2376    1.2779   51.8667 H       1  ZINC000499369364    0.1200
     40 H40        -9.1560    2.6627   53.0077 H       1  ZINC000499369364    0.1300
     41 H41        -7.5267    1.8161   49.2815 H       1  ZINC000499369364    0.1100
     42 H42        -6.7498    3.4338   49.3132 H       1  ZINC000499369364    0.1200
     43 H43        -5.0353    2.2046   48.8673 H       1  ZINC000499369364    0.1300
     44 H44        -4.1377    3.5112   49.6769 H       1  ZINC000499369364    0.1300
     45 H45        -0.5620   -0.5689   48.3774 H       1  ZINC000499369364    0.1600
     46 H46         1.6550   -0.4499   47.1497 H       1  ZINC000499369364    0.1200
     47 H47         1.0425    0.9973   46.1843 H       1  ZINC000499369364    0.1200
     48 H48         0.7142    2.2956   48.3385 H       1  ZINC000499369364    0.1100
     49 H49         1.3266    0.8484   49.3041 H       1  ZINC000499369364    0.1200
@<TRIPOS>BOND
     1     1     2    1
     2     1    28    1
     3     1    29    1
     4     1    30    1
     5     2     3    1
     6     2     4    1
     7     2    31    1
     8     3    32    1
     9     3    33    1
    10     3    34    1
    11     4     5    1
    12     4     6    1
    13     4     7    1
    14     6    35    1
    15     6    36    1
    16     6    37    1
    17     7     8   am
    18     7    38    1
    19     8     9    2
    20     8    10    1
    21    10    11    1
    22    10    15    1
    23    10    12    1
    24    12    13    1
    25    12    39    1
    26    12    40    1
    27    13    14    1
    28    14    15    1
    29    14    41    1
    30    14    42    1
    31    15    16   am
    32    16    17    2
    33    16    18    1
    34    18    19    1
    35    18    43    1
    36    18    44    1
    37    19    20    1
    38    20    24    1
    39    20    21    2
    40    21    22    1
    41    22    23    2
    42    23    24    1
    43    24    25    1
    44    25    27    1
    45    25    26    1
    46    25    45    1
    47    26    27    1
    48    26    46    1
    49    26    47    1
    50    27    48    1
    51    27    49    1
@<TRIPOS>SUBSTRUCTURE
     1 ZINC000499369364        1 TEMP              0 ****  ****    0 ROOT


##########                                Name:    ZINC000938043669
##########                DOCK_Rotatable_Bonds:                   7
##########                         Heavy_Atoms:                  27
##########                    Molecular_Weight:             372.439
##########                DOCK_Rotatable_Bonds:                   7
##########                       Formal_Charge:           0.0499999
##########                     HBond_Acceptors:                   6
##########                        HBond_Donors:                   1
##########                         Heavy_Atoms:                  27
##########                          Grid_Score:          -33.005951
##########                     Grid_vdw_energy:          -32.755211
##########                      Grid_es_energy:           -0.250740
##########           Internal_energy_repulsive:           11.225364

@<TRIPOS>MOLECULE
ZINC000938043669
 52 55 1 0 0
SMALL
USER_CHARGES


@<TRIPOS>ATOM
      1 O1         -7.4212   -0.4857   51.0053 O.2     1  ZINC000938043669   -0.5000
      2 C2         -7.6465    0.6577   51.3412 C.2     1  ZINC000938043669    0.5300
      3 C3         -8.8368    0.9664   52.2125 C.3     1  ZINC000938043669    0.0500
      4 O4         -9.7835   -0.1000   52.1209 O.3     1  ZINC000938043669   -0.2800
      5 C5        -10.8810   -0.0213   52.9195 C.ar    1  ZINC000938043669    0.0900
      6 C6        -12.1154    0.2955   52.3742 C.ar    1  ZINC000938043669   -0.1800
      7 C7        -13.2300    0.3744   53.1878 C.ar    1  ZINC000938043669   -0.0900
      8 C8        -13.1157    0.1378   54.5448 C.ar    1  ZINC000938043669   -0.1300
      9 C9        -11.8860   -0.1782   55.0931 C.ar    1  ZINC000938043669   -0.1100
     10 C10       -10.7684   -0.2641   54.2831 C.ar    1  ZINC000938043669    0.0800
     11 F11        -9.5671   -0.5728   54.8183 F       1  ZINC000938043669   -0.1300
     12 N12        -6.8293    1.6515   50.9400 N.am    1  ZINC000938043669   -0.6200
     13 C13        -6.9816    3.0746   51.2762 C.3     1  ZINC000938043669    0.1000
     14 C14        -5.8044    3.8284   50.6225 C.3     1  ZINC000938043669   -0.1400
     15 C15        -4.7431    2.7134   50.4275 C.3     1  ZINC000938043669    0.1300
     16 H16        -4.1795    2.5457   51.3452 H       1  ZINC000938043669    0.1100
     17 N17        -3.8457    3.0316   49.3141 N.am    1  ZINC000938043669   -0.7200
     18 C18        -2.8105    2.2171   49.0291 C.2     1  ZINC000938043669    0.5200
     19 O19        -2.6227    1.2198   49.6933 O.2     1  ZINC000938043669   -0.5200
     20 C20        -1.8862    2.5453   47.8850 C.3     1  ZINC000938043669   -0.1000
     21 H21        -1.6468    3.6084   47.9052 H       1  ZINC000938043669    0.1000
     22 C22        -2.5725    2.2025   46.5608 C.3     1  ZINC000938043669   -0.1100
     23 C23        -1.7417    1.1553   45.8081 C.3     1  ZINC000938043669   -0.0600
     24 H24        -2.2390    0.8582   44.8847 H       1  ZINC000938043669    0.0800
     25 C25        -1.5541   -0.0411   46.7291 C.2     1  ZINC000938043669   -0.1800
     26 C26        -0.9572    0.2571   47.8807 C.2     1  ZINC000938043669   -0.1300
     27 C27        -0.5951    1.7279   48.0202 C.3     1  ZINC000938043669   -0.0400
     28 H28        -0.1053    1.9165   48.9756 H       1  ZINC000938043669    0.0900
     29 C29         0.3314    2.0928   46.8522 C.3     1  ZINC000938043669   -0.1200
     30 C30        -0.3606    1.7568   45.5129 C.3     1  ZINC000938043669   -0.1100
     31 C31        -5.6310    1.4907   50.0964 C.3     1  ZINC000938043669    0.1000
     32 H32        -8.5113    1.0755   53.2471 H       1  ZINC000938043669    0.1000
     33 H33        -9.3011    1.8941   51.8780 H       1  ZINC000938043669    0.1000
     34 H34       -12.2061    0.4809   51.3141 H       1  ZINC000938043669    0.1400
     35 H35       -14.1915    0.6216   52.7626 H       1  ZINC000938043669    0.1300
     36 H36       -13.9883    0.2002   55.1781 H       1  ZINC000938043669    0.1400
     37 H37       -11.7993   -0.3621   56.1538 H       1  ZINC000938043669    0.1500
     38 H38        -7.9263    3.4496   50.8824 H       1  ZINC000938043669    0.0800
     39 H39        -6.9506    3.2053   52.3579 H       1  ZINC000938043669    0.0800
     40 H40        -6.1018    4.2499   49.6623 H       1  ZINC000938043669    0.0900
     41 H41        -5.4284    4.6067   51.2866 H       1  ZINC000938043669    0.1000
     42 H42        -3.9966    3.8285   48.7821 H       1  ZINC000938043669    0.4000
     43 H43        -3.5666    1.8024   46.7600 H       1  ZINC000938043669    0.0700
     44 H44        -2.6589    3.1030   45.9528 H       1  ZINC000938043669    0.0800
     45 H45        -1.8755   -1.0397   46.4723 H       1  ZINC000938043669    0.1200
     46 H46        -0.7499   -0.4769   48.6454 H       1  ZINC000938043669    0.1200
     47 H47         0.5501    3.1602   46.8819 H       1  ZINC000938043669    0.0700
     48 H48         1.2607    1.5294   46.9362 H       1  ZINC000938043669    0.0700
     49 H49         0.2406    1.0305   44.9659 H       1  ZINC000938043669    0.0700
     50 H50        -0.4622    2.6648   44.9188 H       1  ZINC000938043669    0.0700
     51 H51        -5.1101    0.5657   50.3437 H       1  ZINC000938043669    0.0900
     52 H52        -5.9111    1.4994   49.0431 H       1  ZINC000938043669    0.0700
@<TRIPOS>BOND
     1     1     2    2
     2     2     3    1
     3     2    12   am
     4     3     4    1
     5     3    32    1
     6     3    33    1
     7     4     5    1
     8     5    10   ar
     9     5     6   ar
    10     6     7   ar
    11     6    34    1
    12     7     8   ar
    13     7    35    1
    14     8     9   ar
    15     8    36    1
    16     9    10   ar
    17     9    37    1
    18    10    11    1
    19    12    31    1
    20    12    13    1
    21    13    14    1
    22    13    38    1
    23    13    39    1
    24    14    15    1
    25    14    40    1
    26    14    41    1
    27    15    16    1
    28    15    17    1
    29    15    31    1
    30    17    18   am
    31    17    42    1
    32    18    19    2
    33    18    20    1
    34    20    21    1
    35    20    27    1
    36    20    22    1
    37    22    23    1
    38    22    43    1
    39    22    44    1
    40    23    24    1
    41    23    30    1
    42    23    25    1
    43    25    26    2
    44    25    45    1
    45    26    27    1
    46    26    46    1
    47    27    28    1
    48    27    29    1
    49    29    30    1
    50    29    47    1
    51    29    48    1
    52    30    49    1
    53    30    50    1
    54    31    51    1
    55    31    52    1
@<TRIPOS>SUBSTRUCTURE
     1 ZINC000938043669        1 TEMP              0 ****  ****    0 ROOT


##########                                Name:    ZINC000545381384
##########                DOCK_Rotatable_Bonds:                   6
##########                         Heavy_Atoms:                  30
##########                    Molecular_Weight:             405.543
##########                DOCK_Rotatable_Bonds:                   6
##########                       Formal_Charge:                0.05
##########                     HBond_Acceptors:                   6
##########                        HBond_Donors:                   1
##########                         Heavy_Atoms:                  30
##########                          Grid_Score:          -32.998146
##########                     Grid_vdw_energy:          -31.273182
##########                      Grid_es_energy:           -1.724965
##########           Internal_energy_repulsive:           17.300320

@<TRIPOS>MOLECULE
ZINC000545381384
 61 64 1 0 0
SMALL
USER_CHARGES


@<TRIPOS>ATOM
      1 C1         -7.4653    3.0606   58.6768 C.3     1  ZINC000545381384   -0.2000
      2 C2         -7.1397    1.7027   59.3023 C.3     1  ZINC000545381384    0.0500
      3 N3         -8.3817    0.9426   59.4965 N.3     1  ZINC000545381384   -0.5300
      4 C4         -8.3133    0.1236   60.7169 C.3     1  ZINC000545381384    0.0500
      5 C5         -9.7260   -0.3385   61.0729 C.3     1  ZINC000545381384   -0.0700
      6 C6        -10.3825   -0.9652   59.8662 C.ar    1  ZINC000545381384    0.1800
      7 C7         -9.8832   -0.7542   58.5864 C.ar    1  ZINC000545381384   -0.0800
      8 C8         -8.6670    0.0963   58.3334 C.3     1  ZINC000545381384    0.0900
      9 C9        -10.5154   -1.3435   57.4942 C.ar    1  ZINC000545381384   -0.0700
     10 C10       -10.0103   -1.1351   56.1204 C.2     1  ZINC000545381384    0.5800
     11 O11        -9.4819   -2.0515   55.5216 O.2     1  ZINC000545381384   -0.4800
     12 N12       -10.1358    0.0709   55.5321 N.am    1  ZINC000545381384   -0.6400
     13 C13        -9.6613    0.2670   54.2367 C.2     1  ZINC000545381384    0.3000
     14 C14        -8.4047    0.6608   53.8902 C.2     1  ZINC000545381384   -0.2700
     15 C15        -8.3477    0.7338   52.4961 C.2     1  ZINC000545381384    0.1000
     16 C16        -7.1423    1.1303   51.6832 C.3     1  ZINC000545381384   -0.0300
     17 C17        -7.1506    2.6445   51.4639 C.3     1  ZINC000545381384   -0.0600
     18 C18        -6.8785    3.3537   52.7920 C.3     1  ZINC000545381384   -0.1500
     19 C19        -6.0646    3.0195   50.4536 C.3     1  ZINC000545381384   -0.1400
     20 C20        -8.5172    3.0745   50.9267 C.3     1  ZINC000545381384   -0.1400
     21 N21        -9.5178    0.3992   52.0158 N.2     1  ZINC000545381384   -0.2700
     22 N22       -10.3657    0.0946   53.0884 N.pl3   1  ZINC000545381384   -0.3900
     23 C23       -11.7654   -0.3264   52.9894 C.3     1  ZINC000545381384    0.1000
     24 C24       -11.6553   -2.1483   57.7363 C.ar    1  ZINC000545381384   -0.0700
     25 C25       -12.3455   -2.7761   56.6917 C.ar    1  ZINC000545381384   -0.1100
     26 C26       -13.4368   -3.5432   56.9703 C.ar    1  ZINC000545381384   -0.1000
     27 C27       -13.8755   -3.7109   58.2821 C.ar    1  ZINC000545381384   -0.1000
     28 C28       -13.2292   -3.1146   59.3203 C.ar    1  ZINC000545381384   -0.0900
     29 C29       -12.0980   -2.3152   59.0719 C.ar    1  ZINC000545381384    0.1400
     30 N30       -11.4443   -1.7180   60.0677 N.ar    1  ZINC000545381384   -0.4600
     31 H31        -7.9833    2.9094   57.7296 H       1  ZINC000545381384    0.0600
     32 H32        -8.1036    3.6286   59.3534 H       1  ZINC000545381384    0.0600
     33 H33        -6.5409    3.6109   58.5015 H       1  ZINC000545381384    0.0700
     34 H34        -6.4740    1.1482   58.6408 H       1  ZINC000545381384    0.0900
     35 H35        -6.6518    1.8539   60.2652 H       1  ZINC000545381384    0.0800
     36 H36        -7.6780   -0.7444   60.5401 H       1  ZINC000545381384    0.0500
     37 H37        -7.9058    0.7182   61.5344 H       1  ZINC000545381384    0.0900
     38 H38        -9.6749   -1.0710   61.8785 H       1  ZINC000545381384    0.1000
     39 H39       -10.3149    0.5180   61.4014 H       1  ZINC000545381384    0.1000
     40 H40        -8.8440    0.7281   57.4630 H       1  ZINC000545381384    0.0900
     41 H41        -7.8105   -0.5490   58.1383 H       1  ZINC000545381384    0.0700
     42 H42       -10.5564    0.8026   56.0103 H       1  ZINC000545381384    0.4100
     43 H43        -7.5959    0.8784   54.5720 H       1  ZINC000545381384    0.1700
     44 H44        -6.2351    0.8454   52.2161 H       1  ZINC000545381384    0.0800
     45 H45        -7.1716    0.6233   50.7188 H       1  ZINC000545381384    0.0800
     46 H46        -5.9050    3.0474   53.1747 H       1  ZINC000545381384    0.0500
     47 H47        -6.8845    4.4325   52.6357 H       1  ZINC000545381384    0.0500
     48 H48        -7.6523    3.0866   53.5118 H       1  ZINC000545381384    0.0800
     49 H49        -6.2584    2.5143   49.5074 H       1  ZINC000545381384    0.0600
     50 H50        -6.0705    4.0982   50.2974 H       1  ZINC000545381384    0.0600
     51 H51        -5.0910    2.7132   50.8363 H       1  ZINC000545381384    0.0600
     52 H52        -9.2909    2.8073   51.6466 H       1  ZINC000545381384    0.0500
     53 H53        -8.5231    4.1532   50.7705 H       1  ZINC000545381384    0.0500
     54 H54        -8.7110    2.5691   49.9806 H       1  ZINC000545381384    0.0500
     55 H55       -11.8140   -1.4133   52.9214 H       1  ZINC000545381384    0.0800
     56 H56       -12.3085    0.0068   53.8737 H       1  ZINC000545381384    0.0800
     57 H57       -12.2151    0.1137   52.0995 H       1  ZINC000545381384    0.1000
     58 H58       -12.0149   -2.6526   55.6709 H       1  ZINC000545381384    0.1300
     59 H59       -13.9684   -4.0269   56.1642 H       1  ZINC000545381384    0.1300
     60 H60       -14.7429   -4.3240   58.4780 H       1  ZINC000545381384    0.1400
     61 H61       -13.5830   -3.2542   60.3311 H       1  ZINC000545381384    0.1400
@<TRIPOS>BOND
     1     1     2    1
     2     1    31    1
     3     1    32    1
     4     1    33    1
     5     2     3    1
     6     2    34    1
     7     2    35    1
     8     3     8    1
     9     3     4    1
    10     4     5    1
    11     4    36    1
    12     4    37    1
    13     5     6    1
    14     5    38    1
    15     5    39    1
    16     6    30   ar
    17     6     7   ar
    18     7     8    1
    19     7     9   ar
    20     8    40    1
    21     8    41    1
    22     9    10    1
    23     9    24   ar
    24    10    11    2
    25    10    12   am
    26    12    13    1
    27    12    42    1
    28    13    22    1
    29    13    14    2
    30    14    15    1
    31    14    43    1
    32    15    16    1
    33    15    21    2
    34    16    17    1
    35    16    44    1
    36    16    45    1
    37    17    18    1
    38    17    19    1
    39    17    20    1
    40    18    46    1
    41    18    47    1
    42    18    48    1
    43    19    49    1
    44    19    50    1
    45    19    51    1
    46    20    52    1
    47    20    53    1
    48    20    54    1
    49    21    22    1
    50    22    23    1
    51    23    55    1
    52    23    56    1
    53    23    57    1
    54    24    29   ar
    55    24    25   ar
    56    25    26   ar
    57    25    58    1
    58    26    27   ar
    59    26    59    1
    60    27    28   ar
    61    27    60    1
    62    28    29   ar
    63    28    61    1
    64    29    30   ar
@<TRIPOS>SUBSTRUCTURE
     1 ZINC000545381384        1 TEMP              0 ****  ****    0 ROOT


##########                                Name:    ZINC000991934963
##########                DOCK_Rotatable_Bonds:                   8
##########                         Heavy_Atoms:                  27
##########                    Molecular_Weight:             370.495
##########                DOCK_Rotatable_Bonds:                   8
##########                       Formal_Charge:          -0.0499997
##########                     HBond_Acceptors:                   6
##########                        HBond_Donors:                   1
##########                         Heavy_Atoms:                  27
##########                          Grid_Score:          -32.979534
##########                     Grid_vdw_energy:          -32.077557
##########                      Grid_es_energy:           -0.901976
##########           Internal_energy_repulsive:           17.817089

@<TRIPOS>MOLECULE
ZINC000991934963
 57 61 1 0 0
SMALL
USER_CHARGES


@<TRIPOS>ATOM
      1 C1        -11.2907   -3.7287   57.4914 C.3     1  ZINC000991934963    0.0400
      2 O2        -10.0464   -4.3879   57.7348 O.3     1  ZINC000991934963   -0.2900
      3 C3         -8.9793   -3.6026   58.0167 C.ar    1  ZINC000991934963    0.5000
      4 N4         -7.7948   -4.1637   58.1972 N.ar    1  ZINC000991934963   -0.5700
      5 C5         -6.7318   -3.4263   58.4740 C.ar    1  ZINC000991934963    0.1900
      6 C6         -6.8709   -2.0512   58.5737 C.ar    1  ZINC000991934963   -0.2700
      7 C7         -8.1264   -1.4971   58.3786 C.ar    1  ZINC000991934963    0.2200
      8 C8         -8.3262   -0.0067   58.4771 C.3     1  ZINC000991934963    0.1000
      9 N9         -7.5366    0.6632   57.4351 N.3     1  ZINC000991934963   -0.4900
     10 C10        -6.9205    1.9243   57.9563 C.3     1  ZINC000991934963    0.0400
     11 C11        -7.3154    3.0568   56.9571 C.3     1  ZINC000991934963   -0.1400
     12 C12        -7.5806    2.2540   55.6853 C.3     1  ZINC000991934963    0.1700
     13 N13        -6.3430    1.8370   55.0214 N.am    1  ZINC000991934963   -0.7000
     14 C14        -5.5700    2.7505   54.4014 C.2     1  ZINC000991934963    0.5200
     15 O15        -5.8997    3.9176   54.3918 O.2     1  ZINC000991934963   -0.5300
     16 C16        -4.2960    2.3218   53.7201 C.3     1  ZINC000991934963   -0.1100
     17 C17        -4.2476    2.9138   52.3101 C.3     1  ZINC000991934963   -0.1300
     18 H18        -4.0832    3.9901   52.2575 H       1  ZINC000991934963    0.1200
     19 C19        -5.1516    2.2845   51.2481 C.3     1  ZINC000991934963   -0.1700
     20 C20        -3.6394    2.0514   51.2022 C.3     1  ZINC000991934963   -0.1200
     21 H21        -3.2741    1.0621   51.4778 H       1  ZINC000991934963    0.1000
     22 C22        -2.8476    2.7652   50.1047 C.3     1  ZINC000991934963   -0.1200
     23 C23        -3.5645    3.0400   48.7814 C.3     1  ZINC000991934963   -0.1800
     24 C24        -3.2680    4.1914   49.7442 C.3     1  ZINC000991934963   -0.1800
     25 C25        -8.6475    2.7256   54.7032 C.3     1  ZINC000991934963   -0.1200
     26 C26        -9.1650    1.3827   54.0997 C.3     1  ZINC000991934963   -0.1200
     27 C27        -8.8798    0.2928   55.1772 C.3     1  ZINC000991934963   -0.1000
     28 C28        -8.3622    1.0607   56.3460 C.3     1  ZINC000991934963    0.0500
     29 H29        -9.2297    1.5434   56.7961 H       1  ZINC000991934963    0.0400
     30 N30        -9.1459   -2.2924   58.0996 N.ar    1  ZINC000991934963   -0.5000
     31 H31       -11.1863   -3.0591   56.6377 H       1  ZINC000991934963    0.0600
     32 H32       -12.0598   -4.4713   57.2786 H       1  ZINC000991934963    0.1100
     33 H33       -11.5753   -3.1530   58.3721 H       1  ZINC000991934963    0.0600
     34 H34        -5.7675   -3.8902   58.6207 H       1  ZINC000991934963    0.1700
     35 H35        -6.0202   -1.4251   58.7989 H       1  ZINC000991934963    0.1500
     36 H36        -9.3819    0.2282   58.3405 H       1  ZINC000991934963    0.1000
     37 H37        -8.0011    0.3395   59.4582 H       1  ZINC000991934963    0.0600
     38 H38        -7.3112    2.1487   58.9488 H       1  ZINC000991934963    0.0600
     39 H39        -5.8360    1.8220   57.9955 H       1  ZINC000991934963    0.0800
     40 H40        -8.2154    3.5749   57.2881 H       1  ZINC000991934963    0.0800
     41 H41        -6.4926    3.7572   56.8138 H       1  ZINC000991934963    0.0900
     42 H42        -6.0799    0.9033   55.0280 H       1  ZINC000991934963    0.4000
     43 H43        -3.4400    2.6778   54.2932 H       1  ZINC000991934963    0.1000
     44 H44        -4.2651    1.2340   53.6586 H       1  ZINC000991934963    0.0900
     45 H45        -5.7808    1.4488   51.5541 H       1  ZINC000991934963    0.0900
     46 H46        -5.5817    2.9468   50.4968 H       1  ZINC000991934963    0.1000
     47 H47        -1.7846    2.5277   50.0619 H       1  ZINC000991934963    0.1000
     48 H48        -2.9731    2.9832   47.8674 H       1  ZINC000991934963    0.0900
     49 H49        -4.6002    2.7122   48.6925 H       1  ZINC000991934963    0.0900
     50 H50        -4.1086    4.6212   50.2888 H       1  ZINC000991934963    0.0900
     51 H51        -2.4816    4.8922   49.4638 H       1  ZINC000991934963    0.0900
     52 H52        -9.4485    3.2504   55.2238 H       1  ZINC000991934963    0.0800
     53 H53        -8.2099    3.3552   53.9284 H       1  ZINC000991934963    0.0800
     54 H54       -10.2353    1.4463   53.9038 H       1  ZINC000991934963    0.0700
     55 H55        -8.6270    1.1519   53.1802 H       1  ZINC000991934963    0.0700
     56 H56        -9.7980   -0.2316   55.4416 H       1  ZINC000991934963    0.0700
     57 H57        -8.1276   -0.4100   54.8191 H       1  ZINC000991934963    0.0700
@<TRIPOS>BOND
     1     1     2    1
     2     1    31    1
     3     1    32    1
     4     1    33    1
     5     2     3    1
     6     3    30   ar
     7     3     4   ar
     8     4     5   ar
     9     5     6   ar
    10     5    34    1
    11     6     7   ar
    12     6    35    1
    13     7     8    1
    14     7    30   ar
    15     8     9    1
    16     8    36    1
    17     8    37    1
    18     9    28    1
    19     9    10    1
    20    10    11    1
    21    10    38    1
    22    10    39    1
    23    11    12    1
    24    11    40    1
    25    11    41    1
    26    12    28    1
    27    12    13    1
    28    12    25    1
    29    13    14   am
    30    13    42    1
    31    14    15    2
    32    14    16    1
    33    16    17    1
    34    16    43    1
    35    16    44    1
    36    17    18    1
    37    17    20    1
    38    17    19    1
    39    19    20    1
    40    19    45    1
    41    19    46    1
    42    20    21    1
    43    20    22    1
    44    22    24    1
    45    22    23    1
    46    22    47    1
    47    23    24    1
    48    23    48    1
    49    23    49    1
    50    24    50    1
    51    24    51    1
    52    25    26    1
    53    25    52    1
    54    25    53    1
    55    26    27    1
    56    26    54    1
    57    26    55    1
    58    27    28    1
    59    27    56    1
    60    27    57    1
    61    28    29    1
@<TRIPOS>SUBSTRUCTURE
     1 ZINC000991934963        1 TEMP              0 ****  ****    0 ROOT


##########                                Name:    ZINC000558052810
##########                DOCK_Rotatable_Bonds:                   9
##########                         Heavy_Atoms:                  30
##########                    Molecular_Weight:             424.524
##########                DOCK_Rotatable_Bonds:                   9
##########                       Formal_Charge:          -0.0200002
##########                     HBond_Acceptors:                   8
##########                        HBond_Donors:                   1
##########                         Heavy_Atoms:                  30
##########                          Grid_Score:          -32.978302
##########                     Grid_vdw_energy:          -32.978046
##########                      Grid_es_energy:           -0.000256
##########           Internal_energy_repulsive:           14.048450

@<TRIPOS>MOLECULE
ZINC000558052810
 54 56 1 0 0
SMALL
USER_CHARGES


@<TRIPOS>ATOM
      1 C1         -4.3026    1.2675   51.2995 C.3     1  ZINC000558052810   -0.1700
      2 C2         -4.6168    2.6592   50.7470 C.3     1  ZINC000558052810    0.1100
      3 N3         -5.9894    3.0274   51.1029 N.am    1  ZINC000558052810   -0.6100
      4 C4         -6.2351    3.9623   52.2037 C.3     1  ZINC000558052810    0.0700
      5 C5         -7.0261    2.5060   50.4175 C.2     1  ZINC000558052810    0.5600
      6 O6         -6.8223    1.7304   49.5040 O.2     1  ZINC000558052810   -0.5300
      7 C7         -8.4116    2.8775   50.7767 C.ar    1  ZINC000558052810   -0.1100
      8 C8         -9.0251    3.9703   50.1624 C.ar    1  ZINC000558052810   -0.1100
      9 C9        -10.3184    4.3152   50.4995 C.ar    1  ZINC000558052810   -0.1000
     10 C10       -11.0099    3.5818   51.4451 C.ar    1  ZINC000558052810   -0.1300
     11 C11       -10.4077    2.4920   52.0629 C.ar    1  ZINC000558052810    0.1400
     12 N12       -11.1117    1.7533   53.0197 N.am    1  ZINC000558052810   -0.6600
     13 C13       -11.3484    0.4418   52.8183 C.2     1  ZINC000558052810    0.5600
     14 O14       -10.9498   -0.0994   51.8047 O.2     1  ZINC000558052810   -0.4800
     15 C15       -12.0900   -0.3363   53.8261 C.ar    1  ZINC000558052810   -0.1900
     16 C16       -13.4731   -0.5170   53.7111 C.ar    1  ZINC000558052810   -0.0200
     17 C17       -14.1229   -1.2559   54.6839 C.ar    1  ZINC000558052810   -0.1900
     18 C18       -13.3963   -1.7906   55.7329 C.ar    1  ZINC000558052810    0.1500
     19 N19       -12.0936   -1.6095   55.8248 N.ar    1  ZINC000558052810   -0.4900
     20 C20       -11.4202   -0.9162   54.9186 C.ar    1  ZINC000558052810    0.1600
     21 S21        -9.6794   -0.7056   55.0916 S.3     1  ZINC000558052810    0.0600
     22 C22        -9.5923   -0.2282   56.8353 C.3     1  ZINC000558052810   -0.0700
     23 C23        -8.4414   -0.9430   57.4951 C.2     1  ZINC000558052810   -0.2000
     24 C24        -7.3002   -0.4070   57.9899 C.2     1  ZINC000558052810   -0.0100
     25 C25        -6.9148    1.0499   57.9928 C.3     1  ZINC000558052810   -0.0800
     26 O26        -6.5812   -1.4283   58.4767 O.3     1  ZINC000558052810    0.1000
     27 N27        -7.1527   -2.4838   58.3303 N.2     1  ZINC000558052810   -0.3600
     28 C28        -8.3056   -2.3276   57.7465 C.2     1  ZINC000558052810    0.0300
     29 C29        -9.2954   -3.4096   57.3988 C.3     1  ZINC000558052810   -0.0800
     30 C30        -9.1116    2.1335   51.7265 C.ar    1  ZINC000558052810   -0.0700
     31 H31        -4.4070    1.2752   52.3845 H       1  ZINC000558052810    0.0600
     32 H32        -4.9954    0.5423   50.8729 H       1  ZINC000558052810    0.0600
     33 H33        -3.2812    0.9937   51.0348 H       1  ZINC000558052810    0.0700
     34 H34        -3.9239    3.3845   51.1737 H       1  ZINC000558052810    0.0800
     35 H35        -4.5123    2.6516   49.6621 H       1  ZINC000558052810    0.0800
     36 H36        -6.1722    4.9851   51.8326 H       1  ZINC000558052810    0.0600
     37 H37        -7.2288    3.7856   52.6156 H       1  ZINC000558052810    0.0800
     38 H38        -5.4871    3.8116   52.9821 H       1  ZINC000558052810    0.0700
     39 H39        -8.4878    4.5464   49.4236 H       1  ZINC000558052810    0.1400
     40 H40       -10.7914    5.1612   50.0231 H       1  ZINC000558052810    0.1400
     41 H41       -12.0216    3.8567   51.7050 H       1  ZINC000558052810    0.1300
     42 H42       -11.4297    2.1849   53.8281 H       1  ZINC000558052810    0.4100
     43 H43       -14.0198   -0.0897   52.8834 H       1  ZINC000558052810    0.1400
     44 H44       -15.1896   -1.4138   54.6249 H       1  ZINC000558052810    0.1500
     45 H45       -13.9059   -2.3670   56.4909 H       1  ZINC000558052810    0.1700
     46 H46        -9.4420    0.8488   56.9100 H       1  ZINC000558052810    0.1000
     47 H47       -10.5228   -0.5005   57.3336 H       1  ZINC000558052810    0.1000
     48 H48        -7.2741    1.5189   58.9087 H       1  ZINC000558052810    0.0900
     49 H49        -5.8297    1.1387   57.9406 H       1  ZINC000558052810    0.0900
     50 H50        -7.3619    1.5456   57.1311 H       1  ZINC000558052810    0.0900
     51 H51        -9.9825   -3.5551   58.2324 H       1  ZINC000558052810    0.0800
     52 H52        -9.8571   -3.1167   56.5118 H       1  ZINC000558052810    0.0800
     53 H53        -8.7624   -4.3396   57.2006 H       1  ZINC000558052810    0.0800
     54 H54        -8.6420    1.2869   52.2052 H       1  ZINC000558052810    0.1500
@<TRIPOS>BOND
     1     1     2    1
     2     1    31    1
     3     1    32    1
     4     1    33    1
     5     2     3    1
     6     2    34    1
     7     2    35    1
     8     3     4    1
     9     3     5   am
    10     4    36    1
    11     4    37    1
    12     4    38    1
    13     5     6    2
    14     5     7    1
    15     7    30   ar
    16     7     8   ar
    17     8     9   ar
    18     8    39    1
    19     9    10   ar
    20     9    40    1
    21    10    11   ar
    22    10    41    1
    23    11    12    1
    24    11    30   ar
    25    12    13   am
    26    12    42    1
    27    13    14    2
    28    13    15    1
    29    15    20   ar
    30    15    16   ar
    31    16    17   ar
    32    16    43    1
    33    17    18   ar
    34    17    44    1
    35    18    19   ar
    36    18    45    1
    37    19    20   ar
    38    20    21    1
    39    21    22    1
    40    22    23    1
    41    22    46    1
    42    22    47    1
    43    23    28    1
    44    23    24    2
    45    24    25    1
    46    24    26    1
    47    25    48    1
    48    25    49    1
    49    25    50    1
    50    26    27    1
    51    27    28    2
    52    28    29    1
    53    29    51    1
    54    29    52    1
    55    29    53    1
    56    30    54    1
@<TRIPOS>SUBSTRUCTURE
     1 ZINC000558052810        1 TEMP              0 ****  ****    0 ROOT


##########                                Name:    ZINC000533131987
##########                DOCK_Rotatable_Bonds:                  11
##########                         Heavy_Atoms:                  30
##########                    Molecular_Weight:             419.403
##########                DOCK_Rotatable_Bonds:                  11
##########                       Formal_Charge:                0.01
##########                     HBond_Acceptors:                   9
##########                        HBond_Donors:                   3
##########                         Heavy_Atoms:                  30
##########                          Grid_Score:          -32.975124
##########                     Grid_vdw_energy:          -33.044575
##########                      Grid_es_energy:            0.069450
##########           Internal_energy_repulsive:           25.070627

@<TRIPOS>MOLECULE
ZINC000533131987
 50 52 1 0 0
SMALL
USER_CHARGES


@<TRIPOS>ATOM
      1 O1         -7.6944   -0.1121   51.6974 O.2     1  ZINC000533131987   -0.5700
      2 C2         -7.6453    1.0166   52.1468 C.2     1  ZINC000533131987    0.7100
      3 N3         -6.8000    1.9192   51.6107 N.am    1  ZINC000533131987   -0.7400
      4 C4         -5.9362    1.5386   50.4904 C.3     1  ZINC000533131987    0.1400
      5 C5         -4.6933    2.4308   50.4788 C.3     1  ZINC000533131987   -0.0900
      6 H6         -4.9364    3.3982   50.9184 H       1  ZINC000533131987    0.0900
      7 C7         -3.5808    1.7661   51.2920 C.3     1  ZINC000533131987    0.0800
      8 O8         -3.9469    1.7466   52.6732 O.3     1  ZINC000533131987   -0.5600
      9 C9         -4.2218    2.6299   49.0368 C.3     1  ZINC000533131987   -0.0900
     10 C10        -2.9181    3.3858   49.0345 C.ar    1  ZINC000533131987    0.0000
     11 C11        -2.7570    4.4881   49.8526 C.ar    1  ZINC000533131987   -0.1100
     12 C12        -1.5609    5.1816   49.8504 C.ar    1  ZINC000533131987   -0.0800
     13 C13        -0.5263    4.7723   49.0305 C.ar    1  ZINC000533131987   -0.1300
     14 C14        -0.6872    3.6692   48.2128 C.ar    1  ZINC000533131987   -0.0700
     15 C15        -1.8814    2.9733   48.2181 C.ar    1  ZINC000533131987   -0.1700
     16 C16        -2.0567    1.7708   47.3268 C.3     1  ZINC000533131987    0.5100
     17 F17        -0.9349    1.6338   46.5024 F       1  ZINC000533131987   -0.1800
     18 F18        -2.1995    0.6234   48.1145 F       1  ZINC000533131987   -0.1700
     19 F19        -3.1987    1.9389   46.5363 F       1  ZINC000533131987   -0.1800
     20 N20        -8.4400    1.3667   53.1774 N.am    1  ZINC000533131987   -0.6900
     21 C21        -9.3178    0.4294   53.7341 C.ar    1  ZINC000533131987    0.1600
     22 C22       -10.6107    0.3090   53.2394 C.ar    1  ZINC000533131987   -0.1000
     23 C23       -11.4816   -0.6153   53.7858 C.ar    1  ZINC000533131987   -0.1000
     24 C24       -11.0728   -1.4244   54.8261 C.ar    1  ZINC000533131987   -0.1000
     25 C25        -9.7758   -1.3110   55.3303 C.ar    1  ZINC000533131987    0.0000
     26 C26        -9.3349   -2.1769   56.4446 C.2     1  ZINC000533131987    0.2300
     27 N27        -8.3423   -1.9242   57.2647 N.2     1  ZINC000533131987   -0.4700
     28 C28        -8.2430   -2.9343   58.1421 C.2     1  ZINC000533131987   -0.0400
     29 C29        -9.2031   -3.8305   57.8492 C.2     1  ZINC000533131987   -0.0700
     30 O30        -9.8874   -3.3524   56.7911 O.3     1  ZINC000533131987   -0.2000
     31 C31        -8.8956   -0.3827   54.7753 C.ar    1  ZINC000533131987   -0.1000
     32 H32        -6.7637    2.8208   51.9667 H       1  ZINC000533131987    0.4000
     33 H33        -5.6348    0.4971   50.6016 H       1  ZINC000533131987    0.0700
     34 H34        -6.4803    1.6614   49.5539 H       1  ZINC000533131987    0.0800
     35 H35        -3.4345    0.7447   50.9404 H       1  ZINC000533131987    0.0400
     36 H36        -2.6553    2.3286   51.1693 H       1  ZINC000533131987    0.0600
     37 H37        -3.7011    2.5473   53.1566 H       1  ZINC000533131987    0.3800
     38 H38        -4.0793    1.6582   48.5638 H       1  ZINC000533131987    0.0800
     39 H39        -4.9714    3.1965   48.4845 H       1  ZINC000533131987    0.0900
     40 H40        -3.5655    4.8078   50.4933 H       1  ZINC000533131987    0.1300
     41 H41        -1.4353    6.0434   50.4892 H       1  ZINC000533131987    0.1300
     42 H42         0.4078    5.3145   49.0282 H       1  ZINC000533131987    0.1300
     43 H43         0.1212    3.3496   47.5719 H       1  ZINC000533131987    0.1300
     44 H44        -8.4037    2.2683   53.5334 H       1  ZINC000533131987    0.4100
     45 H45       -10.9364    0.9397   52.4255 H       1  ZINC000533131987    0.1500
     46 H46       -12.4854   -0.7042   53.3974 H       1  ZINC000533131987    0.1400
     47 H47       -11.7562   -2.1449   55.2506 H       1  ZINC000533131987    0.1300
     48 H48        -7.5209   -3.0141   58.9411 H       1  ZINC000533131987    0.1900
     49 H49        -9.3927   -4.7584   58.3682 H       1  ZINC000533131987    0.2200
     50 H50        -7.8911   -0.2906   55.1611 H       1  ZINC000533131987    0.1400
@<TRIPOS>BOND
     1     1     2    2
     2     2     3   am
     3     2    20   am
     4     3     4    1
     5     3    32    1
     6     4     5    1
     7     4    33    1
     8     4    34    1
     9     5     6    1
    10     5     7    1
    11     5     9    1
    12     7     8    1
    13     7    35    1
    14     7    36    1
    15     8    37    1
    16     9    10    1
    17     9    38    1
    18     9    39    1
    19    10    15   ar
    20    10    11   ar
    21    11    12   ar
    22    11    40    1
    23    12    13   ar
    24    12    41    1
    25    13    14   ar
    26    13    42    1
    27    14    15   ar
    28    14    43    1
    29    15    16    1
    30    16    17    1
    31    16    18    1
    32    16    19    1
    33    20    21    1
    34    20    44    1
    35    21    31   ar
    36    21    22   ar
    37    22    23   ar
    38    22    45    1
    39    23    24   ar
    40    23    46    1
    41    24    25   ar
    42    24    47    1
    43    25    26    1
    44    25    31   ar
    45    26    30    1
    46    26    27    2
    47    27    28    1
    48    28    29    2
    49    28    48    1
    50    29    30    1
    51    29    49    1
    52    31    50    1
@<TRIPOS>SUBSTRUCTURE
     1 ZINC000533131987        1 TEMP              0 ****  ****    0 ROOT


##########                                Name:    ZINC000558213406
##########                DOCK_Rotatable_Bonds:                   8
##########                         Heavy_Atoms:                  30
##########                    Molecular_Weight:               408.5
##########                DOCK_Rotatable_Bonds:                   8
##########                       Formal_Charge:          -0.0299987
##########                     HBond_Acceptors:                   7
##########                        HBond_Donors:                   2
##########                         Heavy_Atoms:                  30
##########                          Grid_Score:          -32.958897
##########                     Grid_vdw_energy:          -32.170017
##########                      Grid_es_energy:           -0.788878
##########           Internal_energy_repulsive:            9.730753

@<TRIPOS>MOLECULE
ZINC000558213406
 58 61 1 0 0
SMALL
USER_CHARGES


@<TRIPOS>ATOM
      1 O1         -8.0318    2.0923   52.3461 O.2     1  ZINC000558213406   -0.5700
      2 C2         -7.5075    1.0490   52.0069 C.2     1  ZINC000558213406    0.7100
      3 N3         -8.0527   -0.1287   52.3706 N.am    1  ZINC000558213406   -0.6800
      4 C4         -9.2207   -0.1508   53.1446 C.ar    1  ZINC000558213406    0.1700
      5 C5        -10.4522   -0.3586   52.5376 C.ar    1  ZINC000558213406   -0.1300
      6 C6        -11.6027   -0.3808   53.3008 C.ar    1  ZINC000558213406   -0.1100
      7 C7        -11.5285   -0.1950   54.6738 C.ar    1  ZINC000558213406    0.0600
      8 O8        -12.6617   -0.2165   55.4246 O.3     1  ZINC000558213406   -0.2500
      9 C9        -13.0862   -1.4148   55.9049 C.ar    1  ZINC000558213406    0.0700
     10 C10       -14.4433   -1.7189   55.9434 C.ar    1  ZINC000558213406   -0.1500
     11 C11       -14.8275   -2.9535   56.4417 C.ar    1  ZINC000558213406   -0.1300
     12 C12       -13.8581   -3.8355   56.8806 C.ar    1  ZINC000558213406    0.0600
     13 N13       -12.5795   -3.5162   56.8309 N.ar    1  ZINC000558213406   -0.4500
     14 C14       -12.1719   -2.3551   56.3586 C.ar    1  ZINC000558213406    0.0800
     15 C15       -10.2982    0.0122   55.2807 C.ar    1  ZINC000558213406   -0.1000
     16 C16        -9.1465    0.0293   54.5192 C.ar    1  ZINC000558213406   -0.1100
     17 N17        -6.3841    1.0702   51.2625 N.am    1  ZINC000558213406   -0.7300
     18 C18        -5.7914    2.3504   50.8672 C.3     1  ZINC000558213406    0.1500
     19 H19        -6.5621    3.0415   50.5258 H       1  ZINC000558213406    0.1100
     20 C20        -4.9823    2.9658   52.0393 C.3     1  ZINC000558213406   -0.1400
     21 C21        -3.9513    3.8387   51.2809 C.3     1  ZINC000558213406    0.1000
     22 N22        -3.6080    3.0580   50.0783 N.am    1  ZINC000558213406   -0.6200
     23 C23        -2.4654    3.1656   49.3717 C.2     1  ZINC000558213406    0.5400
     24 O24        -1.6137    3.9586   49.7131 O.2     1  ZINC000558213406   -0.5300
     25 C25        -2.2461    2.3005   48.1573 C.3     1  ZINC000558213406   -0.1000
     26 C26        -1.3002    3.0124   47.1882 C.3     1  ZINC000558213406   -0.1100
     27 C27        -1.0776    2.1341   45.9553 C.3     1  ZINC000558213406   -0.1200
     28 C28        -0.4607    0.8011   46.3834 C.3     1  ZINC000558213406   -0.1200
     29 C29        -1.4066    0.0893   47.3526 C.3     1  ZINC000558213406   -0.1200
     30 C30        -1.6292    0.9676   48.5855 C.3     1  ZINC000558213406   -0.1100
     31 C31        -4.7215    2.1424   49.7747 C.3     1  ZINC000558213406    0.1000
     32 H32        -7.6367   -0.9610   52.0966 H       1  ZINC000558213406    0.4100
     33 H33       -10.5100   -0.5025   51.4689 H       1  ZINC000558213406    0.1300
     34 H34       -12.5606   -0.5425   52.8288 H       1  ZINC000558213406    0.1400
     35 H35       -15.1792   -1.0100   55.5938 H       1  ZINC000558213406    0.1400
     36 H36       -15.8723   -3.2232   56.4869 H       1  ZINC000558213406    0.1400
     37 H37       -14.1517   -4.7992   57.2700 H       1  ZINC000558213406    0.1600
     38 H38       -11.1160   -2.1293   56.3334 H       1  ZINC000558213406    0.1700
     39 H39       -10.2411    0.1567   56.3496 H       1  ZINC000558213406    0.1400
     40 H40        -8.1889    0.1904   54.9919 H       1  ZINC000558213406    0.1500
     41 H41        -5.9681    0.2379   50.9885 H       1  ZINC000558213406    0.4000
     42 H42        -5.6207    3.5791   52.6752 H       1  ZINC000558213406    0.0900
     43 H43        -4.4846    2.1897   52.6205 H       1  ZINC000558213406    0.0800
     44 H44        -4.3963    4.7929   50.9994 H       1  ZINC000558213406    0.0700
     45 H45        -3.0652    3.9988   51.8950 H       1  ZINC000558213406    0.0800
     46 H46        -3.2010    2.1174   47.6646 H       1  ZINC000558213406    0.0900
     47 H47        -1.7398    3.9622   46.8831 H       1  ZINC000558213406    0.0600
     48 H48        -0.3454    3.1956   47.6810 H       1  ZINC000558213406    0.0700
     49 H49        -2.0325    1.9510   45.4624 H       1  ZINC000558213406    0.0600
     50 H50        -0.4038    2.6413   45.2648 H       1  ZINC000558213406    0.0700
     51 H51        -0.3021    0.1755   45.5050 H       1  ZINC000558213406    0.0600
     52 H52         0.4941    0.9843   46.8762 H       1  ZINC000558213406    0.0600
     53 H53        -2.3614   -0.0939   46.8598 H       1  ZINC000558213406    0.0600
     54 H54        -0.9670   -0.8604   47.6575 H       1  ZINC000558213406    0.0700
     55 H55        -0.6744    1.1507   49.0783 H       1  ZINC000558213406    0.0800
     56 H56        -2.3031    0.4604   49.2760 H       1  ZINC000558213406    0.0600
     57 H57        -4.3696    1.1111   49.7952 H       1  ZINC000558213406    0.0800
     58 H58        -5.1361    2.3755   48.7938 H       1  ZINC000558213406    0.0800
@<TRIPOS>BOND
     1     1     2    2
     2     2     3   am
     3     2    17   am
     4     3     4    1
     5     3    32    1
     6     4    16   ar
     7     4     5   ar
     8     5     6   ar
     9     5    33    1
    10     6     7   ar
    11     6    34    1
    12     7     8    1
    13     7    15   ar
    14     8     9    1
    15     9    14   ar
    16     9    10   ar
    17    10    11   ar
    18    10    35    1
    19    11    12   ar
    20    11    36    1
    21    12    13   ar
    22    12    37    1
    23    13    14   ar
    24    14    38    1
    25    15    16   ar
    26    15    39    1
    27    16    40    1
    28    17    18    1
    29    17    41    1
    30    18    19    1
    31    18    31    1
    32    18    20    1
    33    20    21    1
    34    20    42    1
    35    20    43    1
    36    21    22    1
    37    21    44    1
    38    21    45    1
    39    22    23   am
    40    22    31    1
    41    23    24    2
    42    23    25    1
    43    25    30    1
    44    25    26    1
    45    25    46    1
    46    26    27    1
    47    26    47    1
    48    26    48    1
    49    27    28    1
    50    27    49    1
    51    27    50    1
    52    28    29    1
    53    28    51    1
    54    28    52    1
    55    29    30    1
    56    29    53    1
    57    29    54    1
    58    30    55    1
    59    30    56    1
    60    31    57    1
    61    31    58    1
@<TRIPOS>SUBSTRUCTURE
     1 ZINC000558213406        1 TEMP              0 ****  ****    0 ROOT


##########                                Name:    ZINC000623695407
##########                DOCK_Rotatable_Bonds:                  10
##########                         Heavy_Atoms:                  27
##########                    Molecular_Weight:             368.479
##########                DOCK_Rotatable_Bonds:                  10
##########                       Formal_Charge:           0.0299989
##########                     HBond_Acceptors:                   6
##########                        HBond_Donors:                   2
##########                         Heavy_Atoms:                  27
##########                          Grid_Score:          -32.917255
##########                     Grid_vdw_energy:          -31.839754
##########                      Grid_es_energy:           -1.077502
##########           Internal_energy_repulsive:           13.968516

@<TRIPOS>MOLECULE
ZINC000623695407
 55 57 1 0 0
SMALL
USER_CHARGES


@<TRIPOS>ATOM
      1 C1         -0.8909    0.7215   44.9425 C.3     1  ZINC000623695407    0.0300
      2 O2         -1.7137    0.0433   45.8939 O.3     1  ZINC000623695407   -0.3200
      3 C3         -1.9981    0.7050   47.0464 C.ar    1  ZINC000623695407    0.1300
      4 C4         -2.7584    1.8649   47.0121 C.ar    1  ZINC000623695407   -0.2100
      5 C5         -3.0465    2.5354   48.1851 C.ar    1  ZINC000623695407   -0.0600
      6 C6         -2.5773    2.0517   49.3924 C.ar    1  ZINC000623695407   -0.1100
      7 C7         -2.8925    2.7855   50.6705 C.3     1  ZINC000623695407    0.0600
      8 N8         -3.9017    2.0350   51.4296 N.3     1  ZINC000623695407   -0.4600
      9 C9         -3.9994    2.5329   52.8144 C.3     1  ZINC000623695407    0.0000
     10 C10        -5.5240    2.3967   52.6968 C.3     1  ZINC000623695407   -0.1300
     11 C11        -5.2519    2.5813   51.1974 C.3     1  ZINC000623695407    0.0100
     12 H12        -5.2499    3.6245   50.8816 H       1  ZINC000623695407    0.0900
     13 C13        -6.1242    1.6951   50.3060 C.3     1  ZINC000623695407    0.1600
     14 N14        -7.5373    1.9524   50.5947 N.am    1  ZINC000623695407   -0.7400
     15 C15        -8.1257    3.0741   50.1343 C.2     1  ZINC000623695407    0.7100
     16 O16        -7.4842    3.8717   49.4780 O.2     1  ZINC000623695407   -0.5900
     17 N17        -9.4252    3.3115   50.4013 N.am    1  ZINC000623695407   -0.7400
     18 C18       -10.0643    4.5318   49.9023 C.3     1  ZINC000623695407    0.1700
     19 H19        -9.3727    5.3689   49.9966 H       1  ZINC000623695407    0.0900
     20 C20       -10.4415    4.3450   48.4313 C.3     1  ZINC000623695407   -0.1600
     21 C21       -11.3256    4.8177   50.7199 C.3     1  ZINC000623695407   -0.0900
     22 C22       -12.2510    3.6305   50.6475 C.ar    1  ZINC000623695407   -0.0300
     23 C23       -13.2100    3.5380   49.6505 C.ar    1  ZINC000623695407   -0.1700
     24 C24       -14.0411    2.4342   49.6159 C.ar    1  ZINC000623695407    0.1000
     25 N25       -13.9298    1.4776   50.5166 N.ar    1  ZINC000623695407   -0.4900
     26 C26       -13.0296    1.5322   51.4787 C.ar    1  ZINC000623695407    0.1000
     27 C27       -12.1599    2.6021   51.5731 C.ar    1  ZINC000623695407   -0.1700
     28 C28        -1.8196    0.8957   49.4292 C.ar    1  ZINC000623695407   -0.0700
     29 C29        -1.5332    0.2186   48.2596 C.ar    1  ZINC000623695407   -0.1500
     30 H30        -0.7419    0.0839   44.0711 H       1  ZINC000623695407    0.1000
     31 H31        -1.3774    1.6476   44.6361 H       1  ZINC000623695407    0.0600
     32 H32         0.0742    0.9503   45.3946 H       1  ZINC000623695407    0.0600
     33 H33        -3.1246    2.2434   46.0693 H       1  ZINC000623695407    0.1300
     34 H34        -3.6385    3.4384   48.1590 H       1  ZINC000623695407    0.1200
     35 H35        -1.9857    2.8813   51.2675 H       1  ZINC000623695407    0.0600
     36 H36        -3.2787    3.7770   50.4344 H       1  ZINC000623695407    0.0700
     37 H37        -3.5588    1.8599   53.5499 H       1  ZINC000623695407    0.0900
     38 H38        -3.6631    3.5632   52.9302 H       1  ZINC000623695407    0.0700
     39 H39        -5.9058    1.4111   52.9633 H       1  ZINC000623695407    0.1000
     40 H40        -6.0816    3.2146   53.1533 H       1  ZINC000623695407    0.0800
     41 H41        -5.9204    1.9202   49.2591 H       1  ZINC000623695407    0.0700
     42 H42        -5.8980    0.6471   50.5030 H       1  ZINC000623695407    0.0700
     43 H43        -8.0493    1.3154   51.1172 H       1  ZINC000623695407    0.3900
     44 H44        -9.9373    2.6746   50.9238 H       1  ZINC000623695407    0.3900
     45 H45       -10.9171    5.2529   48.0602 H       1  ZINC000623695407    0.0700
     46 H46        -9.5430    4.1413   47.8489 H       1  ZINC000623695407    0.0700
     47 H47       -11.1331    3.5078   48.3371 H       1  ZINC000623695407    0.0600
     48 H48       -11.0513    5.0018   51.7586 H       1  ZINC000623695407    0.1000
     49 H49       -11.8291    5.6960   50.3159 H       1  ZINC000623695407    0.0800
     50 H50       -13.3066    4.3186   48.9104 H       1  ZINC000623695407    0.1300
     51 H51       -14.7908    2.3545   48.8425 H       1  ZINC000623695407    0.1500
     52 H52       -12.9685    0.7296   52.1988 H       1  ZINC000623695407    0.1600
     53 H53       -11.4245    2.6411   52.3630 H       1  ZINC000623695407    0.1400
     54 H54        -1.4545    0.5197   50.3736 H       1  ZINC000623695407    0.1200
     55 H55        -0.9414   -0.6843   48.2888 H       1  ZINC000623695407    0.1300
@<TRIPOS>BOND
     1     1     2    1
     2     1    30    1
     3     1    31    1
     4     1    32    1
     5     2     3    1
     6     3    29   ar
     7     3     4   ar
     8     4     5   ar
     9     4    33    1
    10     5     6   ar
    11     5    34    1
    12     6     7    1
    13     6    28   ar
    14     7     8    1
    15     7    35    1
    16     7    36    1
    17     8    11    1
    18     8     9    1
    19     9    10    1
    20     9    37    1
    21     9    38    1
    22    10    11    1
    23    10    39    1
    24    10    40    1
    25    11    12    1
    26    11    13    1
    27    13    14    1
    28    13    41    1
    29    13    42    1
    30    14    15   am
    31    14    43    1
    32    15    16    2
    33    15    17   am
    34    17    18    1
    35    17    44    1
    36    18    19    1
    37    18    20    1
    38    18    21    1
    39    20    45    1
    40    20    46    1
    41    20    47    1
    42    21    22    1
    43    21    48    1
    44    21    49    1
    45    22    27   ar
    46    22    23   ar
    47    23    24   ar
    48    23    50    1
    49    24    25   ar
    50    24    51    1
    51    25    26   ar
    52    26    27   ar
    53    26    52    1
    54    27    53    1
    55    28    29   ar
    56    28    54    1
    57    29    55    1
@<TRIPOS>SUBSTRUCTURE
     1 ZINC000623695407        1 TEMP              0 ****  ****    0 ROOT


##########                                Name:    ZINC001296589646
##########                DOCK_Rotatable_Bonds:                   8
##########                         Heavy_Atoms:                  29
##########                    Molecular_Weight:             398.548
##########                DOCK_Rotatable_Bonds:                   8
##########                       Formal_Charge:          -0.0200008
##########                     HBond_Acceptors:                   6
##########                        HBond_Donors:                   0
##########                         Heavy_Atoms:                  29
##########                          Grid_Score:          -32.862530
##########                     Grid_vdw_energy:          -32.105080
##########                      Grid_es_energy:           -0.757449
##########           Internal_energy_repulsive:           30.878342

@<TRIPOS>MOLECULE
ZINC001296589646
 63 66 1 0 0
SMALL
USER_CHARGES


@<TRIPOS>ATOM
      1 C1         -8.9074    3.9013   60.4580 C.3     1  ZINC001296589646   -0.1500
      2 C2         -9.7957    3.0048   61.3229 C.3     1  ZINC001296589646    0.0500
      3 O3         -9.0086    1.9511   61.8817 O.3     1  ZINC001296589646   -0.3600
      4 C4         -9.7401    1.0695   62.7359 C.3     1  ZINC001296589646    0.1800
      5 C5        -10.9232    0.4823   62.0100 C.2     1  ZINC001296589646    0.1500
      6 N6        -12.1760    0.6136   62.3427 N.2     1  ZINC001296589646   -0.2600
      7 N7        -12.9222   -0.0155   61.5064 N.2     1  ZINC001296589646   -0.3200
      8 C8        -12.1793   -0.5865   60.5879 C.2     1  ZINC001296589646    0.3600
      9 N9        -12.6287   -1.3499   59.5220 N.3     1  ZINC001296589646   -0.4300
     10 C10       -13.2758   -2.5994   59.9976 C.3     1  ZINC001296589646    0.0300
     11 C11       -14.1460   -3.0297   58.7901 C.3     1  ZINC001296589646   -0.1200
     12 C12       -14.6629   -1.6812   58.2384 C.3     1  ZINC001296589646   -0.1000
     13 H13       -15.6620   -1.4738   58.6212 H       1  ZINC001296589646    0.0800
     14 C14       -14.6751   -1.7030   56.7086 C.3     1  ZINC001296589646   -0.1400
     15 C15       -13.6643   -0.6273   58.7520 C.3     1  ZINC001296589646    0.0500
     16 N16       -10.8810   -0.2819   60.8770 N.pl3   1  ZINC001296589646   -0.4600
     17 C17        -9.6886   -0.6961   60.1334 C.3     1  ZINC001296589646    0.1000
     18 C18        -9.6437    0.0379   58.7917 C.3     1  ZINC001296589646   -0.1300
     19 C19        -8.3742   -0.3589   58.0356 C.3     1  ZINC001296589646   -0.0500
     20 H20        -8.4899   -0.1169   56.9792 H       1  ZINC001296589646    0.0800
     21 C21        -7.1798    0.4078   58.6067 C.3     1  ZINC001296589646   -0.1500
     22 C22        -8.1405   -1.8398   58.1889 C.ar    1  ZINC001296589646   -0.0800
     23 C23        -9.0793   -2.7399   57.7203 C.ar    1  ZINC001296589646   -0.1100
     24 C24        -8.8649   -4.0982   57.8609 C.ar    1  ZINC001296589646   -0.1200
     25 C25        -7.7116   -4.5565   58.4698 C.ar    1  ZINC001296589646   -0.1200
     26 C26        -6.7724   -3.6565   58.9375 C.ar    1  ZINC001296589646   -0.1200
     27 C27        -6.9848   -2.2982   58.7930 C.ar    1  ZINC001296589646   -0.1200
     28 C28       -10.1878    1.8000   64.0312 C.3     1  ZINC001296589646   -0.1400
     29 C29        -8.9151    1.6582   64.9037 C.3     1  ZINC001296589646    0.0600
     30 O30        -8.3887    0.3589   64.5907 O.3     1  ZINC001296589646   -0.3700
     31 C31        -8.8256   -0.0452   63.2878 C.3     1  ZINC001296589646    0.0400
     32 H32        -8.1676    4.3958   61.0876 H       1  ZINC001296589646    0.0600
     33 H33        -8.3993    3.2947   59.7084 H       1  ZINC001296589646    0.0700
     34 H34        -9.5224    4.6522   59.9618 H       1  ZINC001296589646    0.0700
     35 H35       -10.2351    3.5956   62.1267 H       1  ZINC001296589646    0.0500
     36 H36       -10.5896    2.5792   60.7092 H       1  ZINC001296589646    0.0600
     37 H37       -12.5270   -3.3589   60.2223 H       1  ZINC001296589646    0.0900
     38 H38       -13.8988   -2.4020   60.8699 H       1  ZINC001296589646    0.0600
     39 H39       -13.5421   -3.5458   58.0439 H       1  ZINC001296589646    0.0800
     40 H40       -14.9760   -3.6564   59.1167 H       1  ZINC001296589646    0.0800
     41 H41       -15.3489   -2.4865   56.3618 H       1  ZINC001296589646    0.0600
     42 H42       -15.0167   -0.7381   56.3342 H       1  ZINC001296589646    0.0600
     43 H43       -13.6684   -1.9001   56.3399 H       1  ZINC001296589646    0.0600
     44 H44       -14.1766    0.0862   59.3973 H       1  ZINC001296589646    0.0800
     45 H45       -13.2064   -0.1082   57.9100 H       1  ZINC001296589646    0.0900
     46 H46        -8.7971   -0.4521   60.7111 H       1  ZINC001296589646    0.1100
     47 H47        -9.7250   -1.7714   59.9582 H       1  ZINC001296589646    0.1000
     48 H48       -10.5185   -0.2325   58.2002 H       1  ZINC001296589646    0.0800
     49 H49        -9.6416    1.1139   58.9662 H       1  ZINC001296589646    0.0700
     50 H50        -6.2753    0.1250   58.0681 H       1  ZINC001296589646    0.0600
     51 H51        -7.3489    1.4788   58.4958 H       1  ZINC001296589646    0.0600
     52 H52        -7.0641    0.1657   59.6632 H       1  ZINC001296589646    0.0600
     53 H53        -9.9804   -2.3817   57.2446 H       1  ZINC001296589646    0.1200
     54 H54        -9.5986   -4.8013   57.4954 H       1  ZINC001296589646    0.1200
     55 H55        -7.5445   -5.6178   58.5802 H       1  ZINC001296589646    0.1200
     56 H56        -5.8716   -4.0146   59.4135 H       1  ZINC001296589646    0.1200
     57 H57        -6.2510   -1.5951   59.1585 H       1  ZINC001296589646    0.1200
     58 H58       -10.4136    2.8479   63.8333 H       1  ZINC001296589646    0.1000
     59 H59       -11.0380    1.2972   64.4921 H       1  ZINC001296589646    0.1000
     60 H60        -8.1916    2.4317   64.6458 H       1  ZINC001296589646    0.0700
     61 H61        -9.1728    1.7174   65.9610 H       1  ZINC001296589646    0.0900
     62 H62        -9.3825   -0.9796   63.3578 H       1  ZINC001296589646    0.1000
     63 H63        -7.9642   -0.1749   62.6327 H       1  ZINC001296589646    0.0800
@<TRIPOS>BOND
     1     1     2    1
     2     1    32    1
     3     1    33    1
     4     1    34    1
     5     2     3    1
     6     2    35    1
     7     2    36    1
     8     3     4    1
     9     4    31    1
    10     4     5    1
    11     4    28    1
    12     5    16    1
    13     5     6    2
    14     6     7    1
    15     7     8    2
    16     8     9    1
    17     8    16    1
    18     9    15    1
    19     9    10    1
    20    10    11    1
    21    10    37    1
    22    10    38    1
    23    11    12    1
    24    11    39    1
    25    11    40    1
    26    12    13    1
    27    12    14    1
    28    12    15    1
    29    14    41    1
    30    14    42    1
    31    14    43    1
    32    15    44    1
    33    15    45    1
    34    16    17    1
    35    17    18    1
    36    17    46    1
    37    17    47    1
    38    18    19    1
    39    18    48    1
    40    18    49    1
    41    19    20    1
    42    19    21    1
    43    19    22    1
    44    21    50    1
    45    21    51    1
    46    21    52    1
    47    22    27   ar
    48    22    23   ar
    49    23    24   ar
    50    23    53    1
    51    24    25   ar
    52    24    54    1
    53    25    26   ar
    54    25    55    1
    55    26    27   ar
    56    26    56    1
    57    27    57    1
    58    28    29    1
    59    28    58    1
    60    28    59    1
    61    29    30    1
    62    29    60    1
    63    29    61    1
    64    30    31    1
    65    31    62    1
    66    31    63    1
@<TRIPOS>SUBSTRUCTURE
     1 ZINC001296589646        1 TEMP              0 ****  ****    0 ROOT


##########                                Name:    ZINC001060578637
##########                DOCK_Rotatable_Bonds:                  10
##########                         Heavy_Atoms:                  25
##########                    Molecular_Weight:             345.401
##########                DOCK_Rotatable_Bonds:                  10
##########                       Formal_Charge:          -0.0400001
##########                     HBond_Acceptors:                   8
##########                        HBond_Donors:                   3
##########                         Heavy_Atoms:                  25
##########                          Grid_Score:          -32.853050
##########                     Grid_vdw_energy:          -30.136354
##########                      Grid_es_energy:           -2.716696
##########           Internal_energy_repulsive:            9.557188

@<TRIPOS>MOLECULE
ZINC001060578637
 48 49 1 0 0
SMALL
USER_CHARGES


@<TRIPOS>ATOM
      1 C1        -11.1130   -2.5364   57.6053 C.3     1  ZINC001060578637   -0.1500
      2 C2        -10.2145   -1.3010   57.5219 C.3     1  ZINC001060578637   -0.1300
      3 C3         -9.0912   -1.5543   56.5144 C.3     1  ZINC001060578637    0.0700
      4 H4         -8.9563   -2.6279   56.3830 H       1  ZINC001060578637    0.0900
      5 O5         -7.8772   -0.9775   56.9996 O.3     1  ZINC001060578637   -0.3600
      6 C6         -7.2269   -1.7541   58.0077 C.3     1  ZINC001060578637    0.0300
      7 C7         -9.4516   -0.9278   55.1921 C.2     1  ZINC001060578637    0.5000
      8 O8        -10.5332   -1.1499   54.6905 O.2     1  ZINC001060578637   -0.5200
      9 N9         -8.5718   -0.1205   54.5669 N.am    1  ZINC001060578637   -0.7300
     10 C10        -8.9227    0.4900   53.2822 C.3     1  ZINC001060578637    0.1600
     11 C11        -7.6910    1.0967   52.6612 C.ar    1  ZINC001060578637   -0.1100
     12 C12        -6.8372    1.8662   53.4291 C.ar    1  ZINC001060578637   -0.0900
     13 C13        -5.7074    2.4228   52.8594 C.ar    1  ZINC001060578637   -0.1100
     14 C14        -5.4310    2.2094   51.5219 C.ar    1  ZINC001060578637   -0.0900
     15 C15        -4.1996    2.8165   50.9006 C.3     1  ZINC001060578637    0.1800
     16 H16        -3.4530    2.9956   51.6744 H       1  ZINC001060578637    0.1000
     17 C17        -4.5670    4.1416   50.2300 C.3     1  ZINC001060578637   -0.1600
     18 N18        -3.6539    1.8971   49.8991 N.am    1  ZINC001060578637   -0.7000
     19 C19        -2.3277    1.6614   49.8523 C.2     1  ZINC001060578637    0.6100
     20 O20        -1.5839    2.2131   50.6403 O.2     1  ZINC001060578637   -0.5300
     21 C21        -1.7787    0.7347   48.8454 C.2     1  ZINC001060578637    0.1200
     22 N22        -2.3005    0.4568   47.6697 N.2     1  ZINC001060578637   -0.2400
     23 N23        -1.5520   -0.3918   47.0589 N.2     1  ZINC001060578637   -0.2900
     24 C24        -0.5203   -0.6981   47.8069 C.2     1  ZINC001060578637    0.1900
     25 N25        -0.6242    0.0029   48.9533 N.pl3   1  ZINC001060578637   -0.5500
     26 C26        -6.2841    1.4387   50.7543 C.ar    1  ZINC001060578637   -0.1100
     27 C27        -7.4119    0.8790   51.3249 C.ar    1  ZINC001060578637   -0.0900
     28 H28       -11.9309   -2.3446   58.2998 H       1  ZINC001060578637    0.0600
     29 H29       -11.5189   -2.7579   56.6183 H       1  ZINC001060578637    0.0500
     30 H30       -10.5294   -3.3870   57.9575 H       1  ZINC001060578637    0.0600
     31 H31       -10.8049   -0.4433   57.1996 H       1  ZINC001060578637    0.0800
     32 H32        -9.7840   -1.0978   58.5025 H       1  ZINC001060578637    0.0800
     33 H33        -6.2762   -1.2888   58.2680 H       1  ZINC001060578637    0.0900
     34 H34        -7.8611   -1.8046   58.8928 H       1  ZINC001060578637    0.0500
     35 H35        -7.0476   -2.7612   57.6312 H       1  ZINC001060578637    0.0400
     36 H36        -7.7062    0.0561   54.9675 H       1  ZINC001060578637    0.4000
     37 H37        -9.3277   -0.2720   52.6163 H       1  ZINC001060578637    0.0800
     38 H38        -9.6699    1.2675   53.4415 H       1  ZINC001060578637    0.0800
     39 H39        -7.0530    2.0329   54.4741 H       1  ZINC001060578637    0.1300
     40 H40        -5.0407    3.0246   53.4592 H       1  ZINC001060578637    0.1300
     41 H41        -5.3136    3.9625   49.4563 H       1  ZINC001060578637    0.0600
     42 H42        -4.9730    4.8258   50.9751 H       1  ZINC001060578637    0.0700
     43 H43        -3.6763    4.5807   49.7807 H       1  ZINC001060578637    0.0700
     44 H44        -4.2470    1.4579   49.2697 H       1  ZINC001060578637    0.4100
     45 H45         0.2722   -1.3852   47.5494 H       1  ZINC001060578637    0.2300
     46 H46        -0.0103   -0.0117   49.7041 H       1  ZINC001060578637    0.4400
     47 H47        -6.0680    1.2717   49.7094 H       1  ZINC001060578637    0.1300
     48 H48        -8.0784    0.2769   50.7251 H       1  ZINC001060578637    0.1300
@<TRIPOS>BOND
     1     1     2    1
     2     1    28    1
     3     1    29    1
     4     1    30    1
     5     2     3    1
     6     2    31    1
     7     2    32    1
     8     3     4    1
     9     3     5    1
    10     3     7    1
    11     5     6    1
    12     6    33    1
    13     6    34    1
    14     6    35    1
    15     7     8    2
    16     7     9   am
    17     9    10    1
    18     9    36    1
    19    10    11    1
    20    10    37    1
    21    10    38    1
    22    11    27   ar
    23    11    12   ar
    24    12    13   ar
    25    12    39    1
    26    13    14   ar
    27    13    40    1
    28    14    15    1
    29    14    26   ar
    30    15    16    1
    31    15    17    1
    32    15    18    1
    33    17    41    1
    34    17    42    1
    35    17    43    1
    36    18    19   am
    37    18    44    1
    38    19    20    2
    39    19    21    1
    40    21    25    1
    41    21    22    2
    42    22    23    1
    43    23    24    2
    44    24    25    1
    45    24    45    1
    46    25    46    1
    47    26    27   ar
    48    26    47    1
    49    27    48    1
@<TRIPOS>SUBSTRUCTURE
     1 ZINC001060578637        1 TEMP              0 ****  ****    0 ROOT


##########                                Name:    ZINC001369071670
##########                DOCK_Rotatable_Bonds:                   8
##########                         Heavy_Atoms:                  24
##########                    Molecular_Weight:             335.366
##########                DOCK_Rotatable_Bonds:                   8
##########                       Formal_Charge:        -2.90573e-07
##########                     HBond_Acceptors:                  10
##########                        HBond_Donors:                   1
##########                         Heavy_Atoms:                  24
##########                          Grid_Score:          -32.849148
##########                     Grid_vdw_energy:          -29.920624
##########                      Grid_es_energy:           -2.928525
##########           Internal_energy_repulsive:            7.043399

@<TRIPOS>MOLECULE
ZINC001369071670
 45 47 1 0 0
SMALL
USER_CHARGES


@<TRIPOS>ATOM
      1 C1        -11.9910    6.1480   47.7241 C.3     1  ZINC001369071670   -0.0800
      2 C2        -10.7703    6.1313   48.6076 C.2     1  ZINC001369071670    0.0000
      3 C3         -9.6743    5.3526   48.4577 C.2     1  ZINC001369071670   -0.2300
      4 C4         -8.8372    5.7275   49.5408 C.2     1  ZINC001369071670    0.2100
      5 O5         -7.6096    5.2277   49.8322 O.3     1  ZINC001369071670   -0.2600
      6 C6         -6.9719    5.7207   51.0122 C.3     1  ZINC001369071670    0.0400
      7 C7         -5.5651    5.1850   51.0840 C.2     1  ZINC001369071670    0.5200
      8 O8         -4.6654    5.7654   50.5142 O.2     1  ZINC001369071670   -0.5100
      9 N9         -5.3067    4.0612   51.7815 N.am    1  ZINC001369071670   -0.7200
     10 C10        -3.9389    3.5414   51.8528 C.3     1  ZINC001369071670    0.1500
     11 H11        -3.2421    4.3030   51.5026 H       1  ZINC001369071670    0.0900
     12 C12        -3.6076    3.1742   53.3007 C.3     1  ZINC001369071670   -0.1700
     13 C13        -3.8195    2.2969   50.9709 C.3     1  ZINC001369071670   -0.1200
     14 C14        -3.7846    2.6067   49.4634 C.3     1  ZINC001369071670    0.0100
     15 N15        -2.7209    1.5817   49.3780 N.3     1  ZINC001369071670   -0.4800
     16 C16        -1.6311    2.0259   48.4989 C.3     1  ZINC001369071670    0.1000
     17 C17        -1.7882    1.3879   47.1426 C.2     1  ZINC001369071670    0.1900
     18 N18        -2.2555    1.9582   46.0590 N.2     1  ZINC001369071670   -0.3000
     19 N19        -2.2310    1.0880   45.1092 N.2     1  ZINC001369071670   -0.0700
     20 N20        -1.7602   -0.0226   45.5589 N.2     1  ZINC001369071670   -0.0900
     21 N21        -1.4704    0.1237   46.8076 N.pl3   1  ZINC001369071670   -0.3000
     22 C22        -0.9099   -0.8972   47.6962 C.3     1  ZINC001369071670    0.0800
     23 C23        -2.3745    1.7943   50.8008 C.3     1  ZINC001369071670    0.0200
     24 N24        -9.4848    6.6501   50.2007 N.2     1  ZINC001369071670   -0.4100
     25 O25       -10.5557    6.8892   49.6926 O.3     1  ZINC001369071670    0.1000
     26 H26       -12.7011    6.8850   48.0994 H       1  ZINC001369071670    0.0900
     27 H27       -11.6998    6.4094   46.7068 H       1  ZINC001369071670    0.1000
     28 H28       -12.4553    5.1618   47.7271 H       1  ZINC001369071670    0.1000
     29 H29        -9.4811    4.6164   47.6915 H       1  ZINC001369071670    0.1800
     30 H30        -6.9447    6.8101   50.9825 H       1  ZINC001369071670    0.1000
     31 H31        -7.5299    5.3949   51.8900 H       1  ZINC001369071670    0.1000
     32 H32        -6.0265    3.5963   52.2363 H       1  ZINC001369071670    0.4000
     33 H33        -3.6926    4.0609   53.9289 H       1  ZINC001369071670    0.0600
     34 H34        -4.3044    2.4126   53.6509 H       1  ZINC001369071670    0.0600
     35 H35        -2.5899    2.7874   53.3537 H       1  ZINC001369071670    0.0700
     36 H36        -4.5272    1.5139   51.2432 H       1  ZINC001369071670    0.1100
     37 H37        -4.6999    2.3345   48.9378 H       1  ZINC001369071670    0.1000
     38 H38        -3.4425    3.6150   49.2302 H       1  ZINC001369071670    0.0800
     39 H39        -1.6662    3.1105   48.3964 H       1  ZINC001369071670    0.1000
     40 H40        -0.6740    1.7324   48.9299 H       1  ZINC001369071670    0.0900
     41 H41         0.1787   -0.8517   47.6609 H       1  ZINC001369071670    0.1000
     42 H42        -1.2481   -0.7164   48.7165 H       1  ZINC001369071670    0.1000
     43 H43        -1.2429   -1.8833   47.3723 H       1  ZINC001369071670    0.1100
     44 H44        -1.6201    2.5650   50.9587 H       1  ZINC001369071670    0.0800
     45 H45        -2.1632    0.8731   51.3437 H       1  ZINC001369071670    0.1000
@<TRIPOS>BOND
     1     1     2    1
     2     1    26    1
     3     1    27    1
     4     1    28    1
     5     2    25    1
     6     2     3    2
     7     3     4    1
     8     3    29    1
     9     4     5    1
    10     4    24    2
    11     5     6    1
    12     6     7    1
    13     6    30    1
    14     6    31    1
    15     7     8    2
    16     7     9   am
    17     9    10    1
    18     9    32    1
    19    10    11    1
    20    10    12    1
    21    10    13    1
    22    12    33    1
    23    12    34    1
    24    12    35    1
    25    13    23    1
    26    13    14    1
    27    13    36    1
    28    14    15    1
    29    14    37    1
    30    14    38    1
    31    15    16    1
    32    15    23    1
    33    16    17    1
    34    16    39    1
    35    16    40    1
    36    17    21    1
    37    17    18    2
    38    18    19    1
    39    19    20    2
    40    20    21    1
    41    21    22    1
    42    22    41    1
    43    22    42    1
    44    22    43    1
    45    23    44    1
    46    23    45    1
    47    24    25    1
@<TRIPOS>SUBSTRUCTURE
     1 ZINC001369071670        1 TEMP              0 ****  ****    0 ROOT


##########                                Name:    ZINC001461256440
##########                DOCK_Rotatable_Bonds:                  13
##########                         Heavy_Atoms:                  26
##########                    Molecular_Weight:             367.445
##########                DOCK_Rotatable_Bonds:                  13
##########                       Formal_Charge:        -6.37025e-07
##########                     HBond_Acceptors:                   8
##########                        HBond_Donors:                   1
##########                         Heavy_Atoms:                  26
##########                          Grid_Score:          -32.843437
##########                     Grid_vdw_energy:          -31.530888
##########                      Grid_es_energy:           -1.312550
##########           Internal_energy_repulsive:           36.975185

@<TRIPOS>MOLECULE
ZINC001461256440
 55 55 1 0 0
SMALL
USER_CHARGES


@<TRIPOS>ATOM
      1 C1        -11.0584    4.3768   48.7738 C.3     1  ZINC001461256440   -0.1500
      2 C2         -9.5366    4.4737   48.8994 C.3     1  ZINC001461256440    0.0600
      3 O3         -9.0263    3.2741   49.5388 O.3     1  ZINC001461256440   -0.3600
      4 C4         -7.7215    3.2591   49.8532 C.2     1  ZINC001461256440    0.4400
      5 O5         -7.0823    4.2840   49.8284 O.2     1  ZINC001461256440   -0.4800
      6 C6         -7.0538    1.9637   50.2369 C.3     1  ZINC001461256440    0.1400
      7 N7         -5.9666    2.2355   51.1806 N.pl3   1  ZINC001461256440   -0.3800
      8 N8         -6.1114    2.7128   52.4895 N.2     1  ZINC001461256440   -0.2800
      9 C9         -4.9208    2.8300   53.0197 C.2     1  ZINC001461256440    0.1000
     10 C10        -4.6203    3.3105   54.4161 C.3     1  ZINC001461256440   -0.0700
     11 C11        -3.9758    2.4323   52.0701 C.2     1  ZINC001461256440   -0.2700
     12 C12        -4.6459    2.0644   50.9440 C.2     1  ZINC001461256440    0.3100
     13 N13        -4.0740    1.6029   49.7585 N.am    1  ZINC001461256440   -0.6500
     14 C14        -3.4639    2.4671   48.9234 C.2     1  ZINC001461256440    0.5200
     15 O15        -3.4110    3.6460   49.2035 O.2     1  ZINC001461256440   -0.5000
     16 C16        -2.8477    1.9687   47.6418 C.3     1  ZINC001461256440   -0.1300
     17 C17        -1.4531    2.5757   47.4765 C.3     1  ZINC001461256440   -0.1100
     18 C18        -0.5855    1.6385   46.6341 C.3     1  ZINC001461256440   -0.1100
     19 C19        -0.9163    1.8311   45.1527 C.3     1  ZINC001461256440   -0.1200
     20 C20        -0.1225    2.9902   44.6073 C.2     1  ZINC001461256440    0.4600
     21 O21         1.0332    2.8354   44.2911 O.2     1  ZINC001461256440   -0.5000
     22 O22        -0.6997    4.1946   44.4727 O.3     1  ZINC001461256440   -0.3500
     23 C23         0.1242    5.2644   43.9387 C.3     1  ZINC001461256440    0.1200
     24 C24         0.6110    4.8830   42.5392 C.3     1  ZINC001461256440   -0.1800
     25 C25        -0.6995    6.5512   43.8590 C.3     1  ZINC001461256440   -0.1400
     26 C26         1.3292    5.4860   44.8550 C.3     1  ZINC001461256440   -0.1800
     27 H27       -11.4414    5.2773   48.2938 H       1  ZINC001461256440    0.0800
     28 H28       -11.3186    3.5057   48.1725 H       1  ZINC001461256440    0.0700
     29 H29       -11.4992    4.2783   49.7658 H       1  ZINC001461256440    0.0700
     30 H30        -9.0957    4.5722   47.9074 H       1  ZINC001461256440    0.0700
     31 H31        -9.2764    5.3448   49.5007 H       1  ZINC001461256440    0.0700
     32 H32        -7.7840    1.3031   50.7044 H       1  ZINC001461256440    0.1300
     33 H33        -6.6495    1.4852   49.3450 H       1  ZINC001461256440    0.1400
     34 H34        -4.6071    2.4602   55.0980 H       1  ZINC001461256440    0.0800
     35 H35        -3.6478    3.8023   54.4296 H       1  ZINC001461256440    0.0800
     36 H36        -5.3890    4.0166   54.7307 H       1  ZINC001461256440    0.0700
     37 H37        -2.9045    2.4164   52.2067 H       1  ZINC001461256440    0.1800
     38 H38        -4.1154    0.6598   49.5352 H       1  ZINC001461256440    0.4100
     39 H39        -2.7694    0.8820   47.6748 H       1  ZINC001461256440    0.1000
     40 H40        -3.4740    2.2623   46.7993 H       1  ZINC001461256440    0.1000
     41 H41        -1.5341    3.5418   46.9783 H       1  ZINC001461256440    0.0800
     42 H42        -0.9968    2.7099   48.4572 H       1  ZINC001461256440    0.0800
     43 H43         0.4667    1.8668   46.8041 H       1  ZINC001461256440    0.0700
     44 H44        -0.7837    0.6054   46.9193 H       1  ZINC001461256440    0.0700
     45 H45        -0.6613    0.9252   44.6028 H       1  ZINC001461256440    0.1100
     46 H46        -1.9811    2.0357   45.0420 H       1  ZINC001461256440    0.1100
     47 H47        -0.2475    4.7251   41.8864 H       1  ZINC001461256440    0.0600
     48 H48         1.2295    5.6861   42.1383 H       1  ZINC001461256440    0.0700
     49 H49         1.1978    3.9662   42.5959 H       1  ZINC001461256440    0.0800
     50 H50        -1.0463    6.8229   44.8560 H       1  ZINC001461256440    0.0700
     51 H51        -0.0810    7.3542   43.4581 H       1  ZINC001461256440    0.0800
     52 H52        -1.5580    6.3933   43.2062 H       1  ZINC001461256440    0.0700
     53 H53         1.9160    4.5692   44.9117 H       1  ZINC001461256440    0.0800
     54 H54         1.9476    6.2890   44.4541 H       1  ZINC001461256440    0.0700
     55 H55         0.9824    5.7576   45.8520 H       1  ZINC001461256440    0.0600
@<TRIPOS>BOND
     1     1     2    1
     2     1    27    1
     3     1    28    1
     4     1    29    1
     5     2     3    1
     6     2    30    1
     7     2    31    1
     8     3     4    1
     9     4     5    2
    10     4     6    1
    11     6     7    1
    12     6    32    1
    13     6    33    1
    14     7    12    1
    15     7     8    1
    16     8     9    2
    17     9    10    1
    18     9    11    1
    19    10    34    1
    20    10    35    1
    21    10    36    1
    22    11    12    2
    23    11    37    1
    24    12    13    1
    25    13    14   am
    26    13    38    1
    27    14    15    2
    28    14    16    1
    29    16    17    1
    30    16    39    1
    31    16    40    1
    32    17    18    1
    33    17    41    1
    34    17    42    1
    35    18    19    1
    36    18    43    1
    37    18    44    1
    38    19    20    1
    39    19    45    1
    40    19    46    1
    41    20    21    2
    42    20    22    1
    43    22    23    1
    44    23    24    1
    45    23    25    1
    46    23    26    1
    47    24    47    1
    48    24    48    1
    49    24    49    1
    50    25    50    1
    51    25    51    1
    52    25    52    1
    53    26    53    1
    54    26    54    1
    55    26    55    1
@<TRIPOS>SUBSTRUCTURE
     1 ZINC001461256440        1 TEMP              0 ****  ****    0 ROOT


##########                                Name:    ZINC000654382142
##########                DOCK_Rotatable_Bonds:                  14
##########                         Heavy_Atoms:                  24
##########                    Molecular_Weight:             379.401
##########                DOCK_Rotatable_Bonds:                  14
##########                       Formal_Charge:          0.00999933
##########                     HBond_Acceptors:                  12
##########                        HBond_Donors:                   2
##########                         Heavy_Atoms:                  24
##########                          Grid_Score:          -32.825970
##########                     Grid_vdw_energy:          -27.612959
##########                      Grid_es_energy:           -5.213011
##########           Internal_energy_repulsive:           14.854192

@<TRIPOS>MOLECULE
ZINC000654382142
 48 47 1 0 0
SMALL
USER_CHARGES


@<TRIPOS>ATOM
      1 C1        -10.7349    4.8147   66.3707 C.3     1  ZINC000654382142    0.0300
      2 O2        -10.2159    3.5072   66.1193 O.3     1  ZINC000654382142   -0.3700
      3 C3        -11.1161    2.6501   65.4142 C.3     1  ZINC000654382142    0.0400
      4 C4        -10.4821    1.2671   65.2523 C.3     1  ZINC000654382142    0.1400
      5 N5         -9.2851    1.3736   64.4145 N.am    1  ZINC000654382142   -0.6100
      6 C6         -7.9805    1.6288   65.0301 C.3     1  ZINC000654382142    0.0800
      7 C7         -7.2889    0.2973   65.3301 C.3     1  ZINC000654382142    0.0500
      8 H8         -7.0625   -0.2135   64.3942 H       1  ZINC000654382142    0.1400
      9 O9         -8.1529   -0.5202   66.1222 O.3     1  ZINC000654382142   -0.5200
     10 C10        -5.9902    0.5583   66.0959 C.3     1  ZINC000654382142    0.4200
     11 F11        -5.0906    1.2402   65.2695 F       1  ZINC000654382142   -0.1800
     12 F12        -6.2641    1.3340   67.2275 F       1  ZINC000654382142   -0.1700
     13 F13        -5.4288   -0.6607   66.4907 F       1  ZINC000654382142   -0.1800
     14 C14        -9.3841    1.2369   63.0774 C.2     1  ZINC000654382142    0.7100
     15 O15       -10.4671    1.0266   62.5663 O.2     1  ZINC000654382142   -0.5600
     16 N16        -8.2826    1.3332   62.3068 N.am    1  ZINC000654382142   -0.7500
     17 C17        -8.3899    1.1828   60.8534 C.3     1  ZINC000654382142    0.1400
     18 C18        -8.2189   -0.2908   60.4792 C.3     1  ZINC000654382142   -0.1600
     19 C19        -8.1736   -0.4282   58.9561 C.3     1  ZINC000654382142    0.1200
     20 N20        -7.8927   -1.8211   58.5996 N.am    1  ZINC000654382142   -1.0000
     21 C21        -6.6382   -2.4472   59.0243 C.3     1  ZINC000654382142    0.0900
     22 S22        -8.9932   -2.6879   57.7165 S.o2    1  ZINC000654382142    2.6100
     23 C23       -10.4924   -2.6897   58.7378 C.3     1  ZINC000654382142   -0.6800
     24 O24        -9.1903   -1.9114   56.5428 O.2     1  ZINC000654382142   -0.9500
     25 O25        -8.4361   -3.9933   57.6463 O.2     1  ZINC000654382142   -0.9500
     26 H26        -9.9921    5.4032   66.9091 H       1  ZINC000654382142    0.0900
     27 H27       -10.9673    5.3016   65.4236 H       1  ZINC000654382142    0.0400
     28 H28       -11.6413    4.7365   66.9711 H       1  ZINC000654382142    0.0400
     29 H29       -12.0463    2.5600   65.9751 H       1  ZINC000654382142    0.0500
     30 H30       -11.3242    3.0718   64.4309 H       1  ZINC000654382142    0.0600
     31 H31       -10.2064    0.8769   66.2320 H       1  ZINC000654382142    0.0900
     32 H32       -11.1970    0.5928   64.7807 H       1  ZINC000654382142    0.1000
     33 H33        -7.3640    2.2124   64.3464 H       1  ZINC000654382142    0.1000
     34 H34        -8.1189    2.1835   65.9582 H       1  ZINC000654382142    0.1000
     35 H35        -9.0171   -0.6837   65.7205 H       1  ZINC000654382142    0.3900
     36 H36        -7.4188    1.5022   62.7144 H       1  ZINC000654382142    0.3900
     37 H37        -9.3690    1.5303   60.5235 H       1  ZINC000654382142    0.0700
     38 H38        -7.6125    1.7735   60.3686 H       1  ZINC000654382142    0.0700
     39 H39        -7.2898   -0.6685   60.9059 H       1  ZINC000654382142    0.0700
     40 H40        -9.0585   -0.8649   60.8709 H       1  ZINC000654382142    0.0800
     41 H41        -9.1348   -0.1324   58.5358 H       1  ZINC000654382142    0.0900
     42 H42        -7.3891    0.2145   58.5564 H       1  ZINC000654382142    0.1000
     43 H43        -6.7775   -2.9157   59.9986 H       1  ZINC000654382142    0.0600
     44 H44        -6.3446   -3.2033   58.2961 H       1  ZINC000654382142    0.0700
     45 H45        -5.8588   -1.6883   59.0943 H       1  ZINC000654382142    0.0700
     46 H46       -10.8207   -1.6635   58.9029 H       1  ZINC000654382142    0.1300
     47 H47       -11.2791   -3.2453   58.2274 H       1  ZINC000654382142    0.1300
     48 H48       -10.2781   -3.1614   59.6968 H       1  ZINC000654382142    0.1300
@<TRIPOS>BOND
     1     1     2    1
     2     1    26    1
     3     1    27    1
     4     1    28    1
     5     2     3    1
     6     3     4    1
     7     3    29    1
     8     3    30    1
     9     4     5    1
    10     4    31    1
    11     4    32    1
    12     5     6    1
    13     5    14   am
    14     6     7    1
    15     6    33    1
    16     6    34    1
    17     7     8    1
    18     7     9    1
    19     7    10    1
    20     9    35    1
    21    10    11    1
    22    10    12    1
    23    10    13    1
    24    14    15    2
    25    14    16   am
    26    16    17    1
    27    16    36    1
    28    17    18    1
    29    17    37    1
    30    17    38    1
    31    18    19    1
    32    18    39    1
    33    18    40    1
    34    19    20    1
    35    19    41    1
    36    19    42    1
    37    20    21    1
    38    20    22   am
    39    21    43    1
    40    21    44    1
    41    21    45    1
    42    22    23    1
    43    22    24    2
    44    22    25    2
    45    23    46    1
    46    23    47    1
    47    23    48    1
@<TRIPOS>SUBSTRUCTURE
     1 ZINC000654382142        1 TEMP              0 ****  ****    0 ROOT


##########                                Name:    ZINC000457806032
##########                DOCK_Rotatable_Bonds:                   8
##########                         Heavy_Atoms:                  24
##########                    Molecular_Weight:             387.911
##########                DOCK_Rotatable_Bonds:                   8
##########                       Formal_Charge:        -1.49012e-07
##########                     HBond_Acceptors:                   9
##########                        HBond_Donors:                   2
##########                         Heavy_Atoms:                  24
##########                          Grid_Score:          -32.811501
##########                     Grid_vdw_energy:          -31.442177
##########                      Grid_es_energy:           -1.369324
##########           Internal_energy_repulsive:            5.822867

@<TRIPOS>MOLECULE
ZINC000457806032
 42 43 1 0 0
SMALL
USER_CHARGES


@<TRIPOS>ATOM
      1 C1         -8.8023   -3.0429   57.8455 C.3     1  ZINC000457806032    0.0800
      2 N2         -7.9340   -1.9201   58.2085 N.am    1  ZINC000457806032   -1.0100
      3 C3         -6.7288   -2.1547   59.0076 C.3     1  ZINC000457806032    0.0900
      4 S4         -8.3147   -0.3858   57.7152 S.o2    1  ZINC000457806032    2.7900
      5 O5         -8.1912   -0.3772   56.2996 O.2     1  ZINC000457806032   -0.9700
      6 O6         -9.5125   -0.0320   58.3930 O.2     1  ZINC000457806032   -0.9700
      7 N7         -7.1348    0.6220   58.2937 N.am    1  ZINC000457806032   -1.1300
      8 C8         -7.1984    2.0592   58.0167 C.3     1  ZINC000457806032    0.1100
      9 C9         -5.9221    2.4964   57.2952 C.3     1  ZINC000457806032    0.1100
     10 N10        -6.0555    2.2282   55.8611 N.am    1  ZINC000457806032   -0.7300
     11 C11        -5.0063    2.4247   55.0383 C.2     1  ZINC000457806032    0.5800
     12 O12        -3.9482    2.8233   55.4866 O.2     1  ZINC000457806032   -0.5300
     13 C13        -5.1410    2.1568   53.5968 C.2     1  ZINC000457806032   -0.1500
     14 C14        -6.3347    1.8790   53.0020 C.2     1  ZINC000457806032   -0.2200
     15 S15        -6.1242    1.6219   51.3288 S.3     1  ZINC000457806032    0.2400
     16 C16        -4.3930    1.8965   51.4459 C.2     1  ZINC000457806032   -0.1700
     17 C17        -3.4460    1.8403   50.3113 C.ar    1  ZINC000457806032   -0.0100
     18 C18        -2.1298    1.4254   50.5175 C.ar    1  ZINC000457806032   -0.0900
     19 C19        -1.2508    1.3750   49.4554 C.ar    1  ZINC000457806032   -0.1000
     20 C20        -1.6724    1.7357   48.1868 C.ar    1  ZINC000457806032   -0.0300
     21 Cl21       -0.5606    1.6703   46.8552 Cl      1  ZINC000457806032   -0.0600
     22 C22        -2.9774    2.1478   47.9760 C.ar    1  ZINC000457806032   -0.1000
     23 C23        -3.8668    2.1966   49.0295 C.ar    1  ZINC000457806032   -0.1000
     24 C24        -4.0577    2.1706   52.7166 C.2     1  ZINC000457806032   -0.0700
     25 H25        -9.5609   -3.1794   58.6163 H       1  ZINC000457806032    0.0600
     26 H26        -9.2869   -2.8340   56.8918 H       1  ZINC000457806032    0.0800
     27 H27        -8.2051   -3.9506   57.7585 H       1  ZINC000457806032    0.0800
     28 H28        -5.8867   -2.3548   58.3451 H       1  ZINC000457806032    0.0600
     29 H29        -6.5151   -1.2720   59.6105 H       1  ZINC000457806032    0.0700
     30 H30        -6.8879   -3.0117   59.6620 H       1  ZINC000457806032    0.0700
     31 H31        -6.4018    0.2608   58.8162 H       1  ZINC000457806032    0.4200
     32 H32        -8.0624    2.2698   57.3864 H       1  ZINC000457806032    0.0700
     33 H33        -7.2911    2.6064   58.9548 H       1  ZINC000457806032    0.0900
     34 H34        -5.7634    3.5633   57.4520 H       1  ZINC000457806032    0.0800
     35 H35        -5.0722    1.9407   57.6913 H       1  ZINC000457806032    0.0800
     36 H36        -6.8990    1.9091   55.5038 H       1  ZINC000457806032    0.4000
     37 H37        -7.2822    1.8286   53.5180 H       1  ZINC000457806032    0.1700
     38 H38        -1.7996    1.1445   51.5068 H       1  ZINC000457806032    0.1400
     39 H39        -0.2319    1.0540   49.6138 H       1  ZINC000457806032    0.1400
     40 H40        -3.3006    2.4279   46.9844 H       1  ZINC000457806032    0.1400
     41 H41        -4.8845    2.5179   48.8639 H       1  ZINC000457806032    0.1300
     42 H42        -3.0444    2.3746   53.0296 H       1  ZINC000457806032    0.1600
@<TRIPOS>BOND
     1     1     2    1
     2     1    25    1
     3     1    26    1
     4     1    27    1
     5     2     3    1
     6     2     4   am
     7     3    28    1
     8     3    29    1
     9     3    30    1
    10     4     5    2
    11     4     6    2
    12     4     7   am
    13     7     8    1
    14     7    31    1
    15     8     9    1
    16     8    32    1
    17     8    33    1
    18     9    10    1
    19     9    34    1
    20     9    35    1
    21    10    11   am
    22    10    36    1
    23    11    12    2
    24    11    13    1
    25    13    24    1
    26    13    14    2
    27    14    15    1
    28    14    37    1
    29    15    16    1
    30    16    17    1
    31    16    24    2
    32    17    23   ar
    33    17    18   ar
    34    18    19   ar
    35    18    38    1
    36    19    20   ar
    37    19    39    1
    38    20    21    1
    39    20    22   ar
    40    22    23   ar
    41    22    40    1
    42    23    41    1
    43    24    42    1
@<TRIPOS>SUBSTRUCTURE
     1 ZINC000457806032        1 TEMP              0 ****  ****    0 ROOT


##########                                Name:    ZINC000027473870
##########                DOCK_Rotatable_Bonds:                  10
##########                         Heavy_Atoms:                  31
##########                    Molecular_Weight:             422.502
##########                DOCK_Rotatable_Bonds:                  10
##########                       Formal_Charge:        -7.45058e-08
##########                     HBond_Acceptors:                   7
##########                        HBond_Donors:                   1
##########                         Heavy_Atoms:                  31
##########                          Grid_Score:          -32.778854
##########                     Grid_vdw_energy:          -32.120144
##########                      Grid_es_energy:           -0.658709
##########           Internal_energy_repulsive:           19.855774

@<TRIPOS>MOLECULE
ZINC000027473870
 58 60 1 0 0
SMALL
USER_CHARGES


@<TRIPOS>ATOM
      1 C1         -9.9586    3.6082   53.2961 C.3     1  ZINC000027473870   -0.1400
      2 C2         -9.1672    2.5316   54.0412 C.3     1  ZINC000027473870   -0.0800
      3 C3         -8.7127    1.4767   53.0657 C.2     1  ZINC000027473870    0.1700
      4 C4         -7.5648    1.5120   52.2993 C.2     1  ZINC000027473870   -0.2900
      5 C5         -6.5564    2.5871   52.2829 C.2     1  ZINC000027473870    0.6000
      6 O6         -6.0008    2.9154   53.3137 O.2     1  ZINC000027473870   -0.5400
      7 N7         -6.2500    3.2062   51.1256 N.am    1  ZINC000027473870   -0.7200
      8 C8         -5.2465    4.2734   51.1091 C.3     1  ZINC000027473870    0.1600
      9 C9         -4.1831    3.9473   50.0923 C.ar    1  ZINC000027473870   -0.0900
     10 C10        -2.8809    4.3669   50.2987 C.ar    1  ZINC000027473870   -0.1100
     11 C11        -1.9028    4.0721   49.3716 C.ar    1  ZINC000027473870   -0.1100
     12 C12        -2.2293    3.3485   48.2235 C.ar    1  ZINC000027473870   -0.1200
     13 C13        -1.1860    3.0286   47.2258 C.2     1  ZINC000027473870    0.5600
     14 O14        -0.8499    3.8635   46.4089 O.2     1  ZINC000027473870   -0.5300
     15 N15        -0.6077    1.8112   47.2223 N.am    1  ZINC000027473870   -0.6100
     16 C16        -1.0127    0.8050   48.2070 C.3     1  ZINC000027473870    0.1100
     17 C17        -1.2180   -0.5399   47.5069 C.3     1  ZINC000027473870   -0.1700
     18 C18         0.4261    1.4942   46.2337 C.3     1  ZINC000027473870    0.0900
     19 C19        -0.2266    1.2643   44.8692 C.3     1  ZINC000027473870   -0.1800
     20 C20        -3.5447    2.9278   48.0216 C.ar    1  ZINC000027473870   -0.0700
     21 C21        -4.5122    3.2248   48.9592 C.ar    1  ZINC000027473870   -0.1000
     22 C22        -7.5372    0.3244   51.5337 C.2     1  ZINC000027473870    0.0900
     23 N23        -8.6014   -0.3711   51.8276 N.2     1  ZINC000027473870   -0.2800
     24 N24        -9.3476    0.3243   52.7855 N.pl3   1  ZINC000027473870   -0.3100
     25 C25       -10.5576   -0.1032   53.3505 C.ar    1  ZINC000027473870    0.1300
     26 C26       -11.7645    0.2890   52.7874 C.ar    1  ZINC000027473870   -0.0900
     27 C27       -12.9553   -0.1334   53.3451 C.ar    1  ZINC000027473870   -0.1300
     28 C28       -12.9459   -0.9476   54.4652 C.ar    1  ZINC000027473870    0.1100
     29 F29       -14.1117   -1.3602   55.0091 F       1  ZINC000027473870   -0.1300
     30 C30       -11.7429   -1.3399   55.0283 C.ar    1  ZINC000027473870   -0.1400
     31 C31       -10.5502   -0.9237   54.4704 C.ar    1  ZINC000027473870   -0.0700
     32 H32       -10.3616    4.3241   54.0124 H       1  ZINC000027473870    0.0700
     33 H33        -9.3006    4.1247   52.5973 H       1  ZINC000027473870    0.0700
     34 H34       -10.7776    3.1428   52.7476 H       1  ZINC000027473870    0.0500
     35 H35        -8.2978    2.9843   54.5180 H       1  ZINC000027473870    0.1200
     36 H36        -9.8015    2.0749   54.8010 H       1  ZINC000027473870    0.0800
     37 H37        -6.6940    2.9452   50.3036 H       1  ZINC000027473870    0.4000
     38 H38        -5.7239    5.2171   50.8456 H       1  ZINC000027473870    0.0800
     39 H39        -4.7915    4.3595   52.0958 H       1  ZINC000027473870    0.0800
     40 H40        -2.6297    4.9267   51.1874 H       1  ZINC000027473870    0.1300
     41 H41        -0.8869    4.4008   49.5335 H       1  ZINC000027473870    0.1500
     42 H42        -0.2359    0.7052   48.9651 H       1  ZINC000027473870    0.0800
     43 H43        -1.9446    1.1143   48.6803 H       1  ZINC000027473870    0.0800
     44 H44        -1.5193   -1.2886   48.2396 H       1  ZINC000027473870    0.0700
     45 H45        -1.9948   -0.4401   46.7489 H       1  ZINC000027473870    0.0600
     46 H46        -0.2860   -0.8491   47.0337 H       1  ZINC000027473870    0.0600
     47 H47         1.1295    2.3240   46.1648 H       1  ZINC000027473870    0.0800
     48 H48         0.9567    0.5924   46.5393 H       1  ZINC000027473870    0.0900
     49 H49         0.4882    0.7844   44.2008 H       1  ZINC000027473870    0.0700
     50 H50        -1.1002    0.6234   44.9876 H       1  ZINC000027473870    0.0700
     51 H51        -0.5327    2.2215   44.4469 H       1  ZINC000027473870    0.0600
     52 H52        -3.8038    2.3679   47.1351 H       1  ZINC000027473870    0.1300
     53 H53        -5.5304    2.8996   48.8043 H       1  ZINC000027473870    0.1300
     54 H54        -6.7697    0.0422   50.8282 H       1  ZINC000027473870    0.1900
     55 H55       -11.7723    0.9243   51.9141 H       1  ZINC000027473870    0.1500
     56 H56       -13.8943    0.1718   52.9075 H       1  ZINC000027473870    0.1500
     57 H57       -11.7377   -1.9746   55.9021 H       1  ZINC000027473870    0.1500
     58 H58        -9.6123   -1.2302   54.9096 H       1  ZINC000027473870    0.1400
@<TRIPOS>BOND
     1     1     2    1
     2     1    32    1
     3     1    33    1
     4     1    34    1
     5     2     3    1
     6     2    35    1
     7     2    36    1
     8     3    24    1
     9     3     4    2
    10     4     5    1
    11     4    22    1
    12     5     6    2
    13     5     7   am
    14     7     8    1
    15     7    37    1
    16     8     9    1
    17     8    38    1
    18     8    39    1
    19     9    21   ar
    20     9    10   ar
    21    10    11   ar
    22    10    40    1
    23    11    12   ar
    24    11    41    1
    25    12    13    1
    26    12    20   ar
    27    13    14    2
    28    13    15   am
    29    15    16    1
    30    15    18    1
    31    16    17    1
    32    16    42    1
    33    16    43    1
    34    17    44    1
    35    17    45    1
    36    17    46    1
    37    18    19    1
    38    18    47    1
    39    18    48    1
    40    19    49    1
    41    19    50    1
    42    19    51    1
    43    20    21   ar
    44    20    52    1
    45    21    53    1
    46    22    23    2
    47    22    54    1
    48    23    24    1
    49    24    25    1
    50    25    31   ar
    51    25    26   ar
    52    26    27   ar
    53    26    55    1
    54    27    28   ar
    55    27    56    1
    56    28    29    1
    57    28    30   ar
    58    30    31   ar
    59    30    57    1
    60    31    58    1
@<TRIPOS>SUBSTRUCTURE
     1 ZINC000027473870        1 TEMP              0 ****  ****    0 ROOT


##########                                Name:    ZINC000110375116
##########                DOCK_Rotatable_Bonds:                  10
##########                         Heavy_Atoms:                  27
##########                    Molecular_Weight:             396.511
##########                DOCK_Rotatable_Bonds:                  10
##########                       Formal_Charge:        -2.23517e-07
##########                     HBond_Acceptors:                   9
##########                        HBond_Donors:                   0
##########                         Heavy_Atoms:                  27
##########                          Grid_Score:          -32.729248
##########                     Grid_vdw_energy:          -32.067139
##########                      Grid_es_energy:           -0.662109
##########           Internal_energy_repulsive:           36.375854

@<TRIPOS>MOLECULE
ZINC000110375116
 55 56 1 0 0
SMALL
USER_CHARGES


@<TRIPOS>ATOM
      1 C1        -11.3417    1.0677   56.0531 C.3     1  ZINC000110375116   -0.1700
      2 C2        -10.8211   -0.2259   55.4232 C.3     1  ZINC000110375116    0.1000
      3 N3        -10.4624    0.0220   54.0246 N.am    1  ZINC000110375116   -0.6200
      4 C4        -11.4315   -0.2510   52.9605 C.3     1  ZINC000110375116    0.1100
      5 C5        -12.0666    1.0626   52.4998 C.3     1  ZINC000110375116   -0.1700
      6 C6         -9.2408    0.5010   53.7169 C.2     1  ZINC000110375116    0.5100
      7 O7         -8.4379    0.7255   54.5978 O.2     1  ZINC000110375116   -0.5300
      8 C8         -8.8724    0.7576   52.2783 C.3     1  ZINC000110375116   -0.1400
      9 C9         -8.4675    2.2233   52.1092 C.3     1  ZINC000110375116   -0.0900
     10 C10        -7.2931    2.3186   51.1332 C.3     1  ZINC000110375116   -0.1400
     11 C11        -6.0037    2.0715   51.8732 C.2     1  ZINC000110375116    0.5200
     12 O12        -6.0145    1.9200   53.0765 O.2     1  ZINC000110375116   -0.5300
     13 N13        -4.8385    2.0190   51.1978 N.am    1  ZINC000110375116   -0.6200
     14 C14        -4.8097    2.2052   49.7403 C.3     1  ZINC000110375116    0.0900
     15 C15        -3.8361    3.3435   49.4107 C.3     1  ZINC000110375116    0.1000
     16 N16        -2.5716    3.0996   50.1187 N.am    1  ZINC000110375116   -1.0000
     17 S17        -1.1398    3.0361   49.2891 S.o2    1  ZINC000110375116    2.7000
     18 O18        -1.0592    4.2381   48.5354 O.2     1  ZINC000110375116   -0.9400
     19 O19        -0.1494    2.6392   50.2275 O.2     1  ZINC000110375116   -0.9500
     20 C20        -1.2719    1.7241   48.1203 C.ar    1  ZINC000110375116   -0.7400
     21 C21        -1.6959    1.9780   46.8251 C.ar    1  ZINC000110375116    0.0200
     22 C22        -1.7844    0.9148   45.9392 C.ar    1  ZINC000110375116   -0.1900
     23 C23        -1.4493   -0.3534   46.3738 C.ar    1  ZINC000110375116    0.1500
     24 N24        -1.0497   -0.5580   47.6139 N.ar    1  ZINC000110375116   -0.4900
     25 C25        -0.9486    0.4296   48.4817 C.ar    1  ZINC000110375116    0.2000
     26 C26        -2.6003    2.9134   51.5762 C.3     1  ZINC000110375116    0.1000
     27 C27        -3.5733    1.7807   51.9065 C.3     1  ZINC000110375116    0.1000
     28 H28       -11.6087    0.8833   57.0937 H       1  ZINC000110375116    0.0700
     29 H29       -10.5662    1.8321   56.0068 H       1  ZINC000110375116    0.0600
     30 H30       -12.2214    1.4091   55.5074 H       1  ZINC000110375116    0.0600
     31 H31        -9.9415   -0.5673   55.9689 H       1  ZINC000110375116    0.0800
     32 H32       -11.5968   -0.9903   55.4695 H       1  ZINC000110375116    0.0800
     33 H33       -10.9242   -0.7238   52.1195 H       1  ZINC000110375116    0.0800
     34 H34       -12.2074   -0.9171   53.3377 H       1  ZINC000110375116    0.0800
     35 H35       -12.7876    0.8595   51.7080 H       1  ZINC000110375116    0.0700
     36 H36       -12.5739    1.5354   53.3407 H       1  ZINC000110375116    0.0500
     37 H37       -11.2906    1.7286   52.1225 H       1  ZINC000110375116    0.0600
     38 H38        -8.0381    0.1154   51.9967 H       1  ZINC000110375116    0.0900
     39 H39        -9.7290    0.5413   51.6398 H       1  ZINC000110375116    0.0900
     40 H40        -9.3120    2.7907   51.7180 H       1  ZINC000110375116    0.0800
     41 H41        -8.1712    2.6321   53.0752 H       1  ZINC000110375116    0.0800
     42 H42        -7.4108    1.5709   50.3489 H       1  ZINC000110375116    0.1000
     43 H43        -7.2712    3.3129   50.6870 H       1  ZINC000110375116    0.1000
     44 H44        -4.4736    1.2859   49.2607 H       1  ZINC000110375116    0.0800
     45 H45        -5.8074    2.4627   49.3847 H       1  ZINC000110375116    0.1000
     46 H46        -3.6546    3.3701   48.3364 H       1  ZINC000110375116    0.1100
     47 H47        -4.2602    4.2934   49.7362 H       1  ZINC000110375116    0.0800
     48 H48        -1.9516    2.9799   46.5135 H       1  ZINC000110375116    0.1500
     49 H49        -2.1113    1.0758   44.9226 H       1  ZINC000110375116    0.1500
     50 H50        -1.5159   -1.1869   45.6902 H       1  ZINC000110375116    0.1700
     51 H51        -0.6177    0.2236   49.4888 H       1  ZINC000110375116    0.1700
     52 H52        -1.6026    2.6559   51.9319 H       1  ZINC000110375116    0.1100
     53 H53        -2.9364    3.8327   52.0559 H       1  ZINC000110375116    0.0800
     54 H54        -3.7539    1.7552   52.9812 H       1  ZINC000110375116    0.1100
     55 H55        -3.1515    0.8296   51.5813 H       1  ZINC000110375116    0.0800
@<TRIPOS>BOND
     1     1     2    1
     2     1    28    1
     3     1    29    1
     4     1    30    1
     5     2     3    1
     6     2    31    1
     7     2    32    1
     8     3     4    1
     9     3     6   am
    10     4     5    1
    11     4    33    1
    12     4    34    1
    13     5    35    1
    14     5    36    1
    15     5    37    1
    16     6     7    2
    17     6     8    1
    18     8     9    1
    19     8    38    1
    20     8    39    1
    21     9    10    1
    22     9    40    1
    23     9    41    1
    24    10    11    1
    25    10    42    1
    26    10    43    1
    27    11    12    2
    28    11    13   am
    29    13    27    1
    30    13    14    1
    31    14    15    1
    32    14    44    1
    33    14    45    1
    34    15    16    1
    35    15    46    1
    36    15    47    1
    37    16    17   am
    38    16    26    1
    39    17    18    2
    40    17    19    2
    41    17    20    1
    42    20    25   ar
    43    20    21   ar
    44    21    22   ar
    45    21    48    1
    46    22    23   ar
    47    22    49    1
    48    23    24   ar
    49    23    50    1
    50    24    25   ar
    51    25    51    1
    52    26    27    1
    53    26    52    1
    54    26    53    1
    55    27    54    1
    56    27    55    1
@<TRIPOS>SUBSTRUCTURE
     1 ZINC000110375116        1 TEMP              0 ****  ****    0 ROOT


##########                                Name:    ZINC000547864253
##########                DOCK_Rotatable_Bonds:                   6
##########                         Heavy_Atoms:                  30
##########                    Molecular_Weight:             422.548
##########                DOCK_Rotatable_Bonds:                   6
##########                       Formal_Charge:           0.0300002
##########                     HBond_Acceptors:                   6
##########                        HBond_Donors:                   2
##########                         Heavy_Atoms:                  30
##########                          Grid_Score:          -32.712711
##########                     Grid_vdw_energy:          -31.318624
##########                      Grid_es_energy:           -1.394086
##########           Internal_energy_repulsive:           14.454619

@<TRIPOS>MOLECULE
ZINC000547864253
 56 60 1 0 0
SMALL
USER_CHARGES


@<TRIPOS>ATOM
      1 O1         -4.2108    1.3979   49.9638 O.2     1  ZINC000547864253   -0.5300
      2 C2         -3.2783    2.0628   50.3629 C.2     1  ZINC000547864253    0.5400
      3 N3         -3.5047    3.1572   51.1163 N.am    1  ZINC000547864253   -0.7200
      4 C4         -4.8773    3.5469   51.4481 C.3     1  ZINC000547864253    0.1300
      5 C5         -5.4189    2.6249   52.5424 C.3     1  ZINC000547864253    0.0200
      6 H6         -5.0240    1.6192   52.3983 H       1  ZINC000547864253    0.0900
      7 C7         -4.9934    3.1431   53.8919 C.2     1  ZINC000547864253   -0.1600
      8 C8         -4.0428    4.0601   54.1317 C.2     1  ZINC000547864253    0.0600
      9 N9         -3.9345    4.2788   55.4781 N.pl3   1  ZINC000547864253   -0.5900
     10 C10        -4.8358    3.4878   56.1549 C.ar    1  ZINC000547864253    0.1000
     11 C11        -5.1389    3.3183   57.5017 C.ar    1  ZINC000547864253   -0.1300
     12 C12        -6.1196    2.4255   57.8754 C.ar    1  ZINC000547864253   -0.1000
     13 C13        -6.8099    1.6919   56.9208 C.ar    1  ZINC000547864253   -0.1400
     14 C14        -6.5283    1.8427   55.5919 C.ar    1  ZINC000547864253   -0.0700
     15 C15        -5.5429    2.7463   55.1906 C.ar    1  ZINC000547864253   -0.1000
     16 C16        -6.9237    2.5889   52.4697 C.ar    1  ZINC000547864253   -0.0700
     17 C17        -7.5710    1.4178   52.1229 C.ar    1  ZINC000547864253   -0.1100
     18 C18        -8.9514    1.3847   52.0562 C.ar    1  ZINC000547864253   -0.1200
     19 C19        -9.6844    2.5226   52.3368 C.ar    1  ZINC000547864253   -0.1200
     20 C20        -9.0371    3.6935   52.6846 C.ar    1  ZINC000547864253   -0.1100
     21 C21        -7.6569    3.7254   52.7555 C.ar    1  ZINC000547864253   -0.1200
     22 C22        -1.8663    1.6619   50.0216 C.3     1  ZINC000547864253   -0.1700
     23 H23        -1.3873    0.9822   50.7264 H       1  ZINC000547864253    0.1400
     24 C24        -0.9827    2.7042   49.3338 C.3     1  ZINC000547864253   -0.1300
     25 C25        -1.5139    1.5072   48.5397 C.3     1  ZINC000547864253   -0.1400
     26 C26        -0.5146    0.4117   48.1658 C.3     1  ZINC000547864253   -0.0700
     27 C27         0.2729    0.8337   46.9235 C.3     1  ZINC000547864253   -0.6000
     28 S28        -0.8780    1.0745   45.5402 S.o2    1  ZINC000547864253    2.4200
     29 O29        -0.1692    1.6597   44.4565 O.2     1  ZINC000547864253   -0.9400
     30 O30        -1.5943   -0.1346   45.3298 O.2     1  ZINC000547864253   -0.9300
     31 C31        -2.0157    2.3127   46.2250 C.3     1  ZINC000547864253   -0.6000
     32 C32        -2.6238    1.7746   47.5221 C.3     1  ZINC000547864253   -0.0700
     33 H33        -2.7587    3.6868   51.4388 H       1  ZINC000547864253    0.4000
     34 H34        -4.8867    4.5772   51.8035 H       1  ZINC000547864253    0.0800
     35 H35        -5.5035    3.4633   50.5598 H       1  ZINC000547864253    0.0700
     36 H36        -3.4508    4.5521   53.3741 H       1  ZINC000547864253    0.1700
     37 H37        -3.3152    4.8988   55.8939 H       1  ZINC000547864253    0.4200
     38 H38        -4.6069    3.8844   58.2521 H       1  ZINC000547864253    0.1200
     39 H39        -6.3531    2.2951   58.9217 H       1  ZINC000547864253    0.1300
     40 H40        -7.5756    0.9959   57.2305 H       1  ZINC000547864253    0.1200
     41 H41        -7.0696    1.2683   54.8547 H       1  ZINC000547864253    0.1200
     42 H42        -6.9983    0.5287   51.9036 H       1  ZINC000547864253    0.1200
     43 H43        -9.4571    0.4699   51.7845 H       1  ZINC000547864253    0.1200
     44 H44       -10.7628    2.4969   52.2841 H       1  ZINC000547864253    0.1200
     45 H45        -9.6097    4.5826   52.9036 H       1  ZINC000547864253    0.1200
     46 H46        -7.1512    4.6401   53.0272 H       1  ZINC000547864253    0.1200
     47 H47        -1.4227    3.6801   49.1281 H       1  ZINC000547864253    0.1100
     48 H48         0.0777    2.7102   49.5859 H       1  ZINC000547864253    0.1100
     49 H49         0.1746    0.2511   48.9949 H       1  ZINC000547864253    0.0900
     50 H50        -1.0519   -0.5136   47.9576 H       1  ZINC000547864253    0.0900
     51 H51         0.7994    1.7664   47.1257 H       1  ZINC000547864253    0.1400
     52 H52         0.9928    0.0563   46.6672 H       1  ZINC000547864253    0.1400
     53 H53        -1.4701    3.2330   46.4329 H       1  ZINC000547864253    0.1400
     54 H54        -2.8103    2.5140   45.5065 H       1  ZINC000547864253    0.1400
     55 H55        -3.1571    0.8469   47.3150 H       1  ZINC000547864253    0.0900
     56 H56        -3.3191    2.5090   47.9285 H       1  ZINC000547864253    0.0900
@<TRIPOS>BOND
     1     1     2    2
     2     2     3   am
     3     2    22    1
     4     3     4    1
     5     3    33    1
     6     4     5    1
     7     4    34    1
     8     4    35    1
     9     5     6    1
    10     5     7    1
    11     5    16    1
    12     7    15    1
    13     7     8    2
    14     8     9    1
    15     8    36    1
    16     9    10    1
    17     9    37    1
    18    10    15   ar
    19    10    11   ar
    20    11    12   ar
    21    11    38    1
    22    12    13   ar
    23    12    39    1
    24    13    14   ar
    25    13    40    1
    26    14    15   ar
    27    14    41    1
    28    16    21   ar
    29    16    17   ar
    30    17    18   ar
    31    17    42    1
    32    18    19   ar
    33    18    43    1
    34    19    20   ar
    35    19    44    1
    36    20    21   ar
    37    20    45    1
    38    21    46    1
    39    22    23    1
    40    22    25    1
    41    22    24    1
    42    24    25    1
    43    24    47    1
    44    24    48    1
    45    25    32    1
    46    25    26    1
    47    26    27    1
    48    26    49    1
    49    26    50    1
    50    27    28    1
    51    27    51    1
    52    27    52    1
    53    28    29    2
    54    28    30    2
    55    28    31    1
    56    31    32    1
    57    31    53    1
    58    31    54    1
    59    32    55    1
    60    32    56    1
@<TRIPOS>SUBSTRUCTURE
     1 ZINC000547864253        1 TEMP              0 ****  ****    0 ROOT


##########                                Name:    ZINC000532153088
##########                DOCK_Rotatable_Bonds:                  11
##########                         Heavy_Atoms:                  29
##########                    Molecular_Weight:             402.484
##########                DOCK_Rotatable_Bonds:                  11
##########                       Formal_Charge:          -0.0200009
##########                     HBond_Acceptors:                   6
##########                        HBond_Donors:                   1
##########                         Heavy_Atoms:                  29
##########                          Grid_Score:          -32.666946
##########                     Grid_vdw_energy:          -30.612669
##########                      Grid_es_energy:           -2.054278
##########           Internal_energy_repulsive:           21.245127

@<TRIPOS>MOLECULE
ZINC000532153088
 57 59 1 0 0
SMALL
USER_CHARGES


@<TRIPOS>ATOM
      1 C1         -7.8721    1.1951   51.9652 C.3     1  ZINC000532153088   -0.1800
      2 C2         -6.7007    1.1804   50.9810 C.3     1  ZINC000532153088    0.0800
      3 C3         -6.9541    2.2027   49.8712 C.3     1  ZINC000532153088   -0.1500
      4 O4         -5.4947    1.5150   51.6707 O.3     1  ZINC000532153088   -0.3800
      5 C5         -5.3667    2.9050   51.9767 C.3     1  ZINC000532153088    0.1000
      6 C6         -4.2088    3.1071   52.9199 C.ar    1  ZINC000532153088   -0.0700
      7 C7         -2.9422    3.3414   52.4188 C.ar    1  ZINC000532153088   -0.1000
      8 C8         -1.8799    3.5267   53.2842 C.ar    1  ZINC000532153088   -0.1100
      9 C9         -2.0847    3.4782   54.6502 C.ar    1  ZINC000532153088   -0.1200
     10 C10        -3.3520    3.2447   55.1514 C.ar    1  ZINC000532153088   -0.1000
     11 C11        -4.4146    3.0637   54.2864 C.ar    1  ZINC000532153088   -0.1100
     12 C12        -5.7959    2.8092   54.8326 C.3     1  ZINC000532153088    0.1600
     13 N13        -5.6944    2.3287   56.2128 N.am    1  ZINC000532153088   -0.7300
     14 C14        -6.7645    1.7701   56.8123 C.2     1  ZINC000532153088    0.5100
     15 O15        -7.8118    1.6665   56.2096 O.2     1  ZINC000532153088   -0.5000
     16 C16        -6.6595    1.2741   58.2315 C.3     1  ZINC000532153088    0.0300
     17 N17        -7.9939    1.2610   58.8456 N.3     1  ZINC000532153088   -0.4800
     18 C18        -8.1237    0.1511   59.7991 C.3     1  ZINC000532153088    0.1000
     19 C19        -8.1657   -1.1545   59.0476 C.ar    1  ZINC000532153088   -0.1300
     20 C20        -7.0690   -1.9951   59.0620 C.ar    1  ZINC000532153088   -0.0600
     21 C21        -7.1061   -3.1932   58.3736 C.ar    1  ZINC000532153088   -0.1700
     22 C22        -8.2424   -3.5523   57.6688 C.ar    1  ZINC000532153088    0.1300
     23 F23        -8.2787   -4.7236   56.9965 F       1  ZINC000532153088   -0.1300
     24 C24        -9.3417   -2.7110   57.6539 C.ar    1  ZINC000532153088   -0.2000
     25 C25        -9.3053   -1.5141   58.3478 C.ar    1  ZINC000532153088    0.1600
     26 F26       -10.3773   -0.6921   58.3340 F       1  ZINC000532153088   -0.1100
     27 C27        -8.2890    2.5470   59.4913 C.3     1  ZINC000532153088    0.0200
     28 C28        -8.9358    3.6362   58.6334 C.3     1  ZINC000532153088   -0.2200
     29 C29        -9.7602    2.9119   59.6994 C.3     1  ZINC000532153088   -0.1700
     30 H30        -8.7919    0.9399   51.4391 H       1  ZINC000532153088    0.0700
     31 H31        -7.6915    0.4668   52.7557 H       1  ZINC000532153088    0.0600
     32 H32        -7.9671    2.1893   52.4019 H       1  ZINC000532153088    0.0700
     33 H33        -6.6056    0.1862   50.5442 H       1  ZINC000532153088    0.0600
     34 H34        -7.0492    3.1970   50.3079 H       1  ZINC000532153088    0.0600
     35 H35        -6.1196    2.1922   49.1701 H       1  ZINC000532153088    0.0600
     36 H36        -7.8740    1.9475   49.3452 H       1  ZINC000532153088    0.0700
     37 H37        -5.1891    3.4644   51.0583 H       1  ZINC000532153088    0.0600
     38 H38        -6.2841    3.2596   52.4465 H       1  ZINC000532153088    0.0600
     39 H39        -2.7822    3.3793   51.3515 H       1  ZINC000532153088    0.1300
     40 H40        -0.8900    3.7091   52.8927 H       1  ZINC000532153088    0.1200
     41 H41        -1.2548    3.6224   55.3262 H       1  ZINC000532153088    0.1300
     42 H42        -3.5119    3.2065   56.2188 H       1  ZINC000532153088    0.1300
     43 H43        -6.3711    3.7349   54.8115 H       1  ZINC000532153088    0.0800
     44 H44        -6.2953    2.0571   54.2219 H       1  ZINC000532153088    0.0800
     45 H45        -4.8570    2.4126   56.6952 H       1  ZINC000532153088    0.4000
     46 H46        -6.2484    0.2646   58.2341 H       1  ZINC000532153088    0.0700
     47 H47        -6.0045    1.9346   58.7997 H       1  ZINC000532153088    0.1100
     48 H48        -7.2702    0.1528   60.4771 H       1  ZINC000532153088    0.0900
     49 H49        -9.0432    0.2701   60.3723 H       1  ZINC000532153088    0.0500
     50 H50        -6.1819   -1.7156   59.6111 H       1  ZINC000532153088    0.1400
     51 H51        -6.2483   -3.8493   58.3850 H       1  ZINC000532153088    0.1400
     52 H52       -10.2287   -2.9903   57.1044 H       1  ZINC000532153088    0.1500
     53 H53        -7.5791    2.8631   60.2556 H       1  ZINC000532153088    0.1200
     54 H54        -8.6514    4.6694   58.8331 H       1  ZINC000532153088    0.1000
     55 H55        -9.1424    3.3986   57.5898 H       1  ZINC000532153088    0.1000
     56 H56       -10.5092    2.1976   59.3572 H       1  ZINC000532153088    0.1000
     57 H57       -10.0181    3.4684   60.6005 H       1  ZINC000532153088    0.1000
@<TRIPOS>BOND
     1     1     2    1
     2     1    30    1
     3     1    31    1
     4     1    32    1
     5     2     3    1
     6     2     4    1
     7     2    33    1
     8     3    34    1
     9     3    35    1
    10     3    36    1
    11     4     5    1
    12     5     6    1
    13     5    37    1
    14     5    38    1
    15     6    11   ar
    16     6     7   ar
    17     7     8   ar
    18     7    39    1
    19     8     9   ar
    20     8    40    1
    21     9    10   ar
    22     9    41    1
    23    10    11   ar
    24    10    42    1
    25    11    12    1
    26    12    13    1
    27    12    43    1
    28    12    44    1
    29    13    14   am
    30    13    45    1
    31    14    15    2
    32    14    16    1
    33    16    17    1
    34    16    46    1
    35    16    47    1
    36    17    18    1
    37    17    27    1
    38    18    19    1
    39    18    48    1
    40    18    49    1
    41    19    25   ar
    42    19    20   ar
    43    20    21   ar
    44    20    50    1
    45    21    22   ar
    46    21    51    1
    47    22    23    1
    48    22    24   ar
    49    24    25   ar
    50    24    52    1
    51    25    26    1
    52    27    29    1
    53    27    28    1
    54    27    53    1
    55    28    29    1
    56    28    54    1
    57    28    55    1
    58    29    56    1
    59    29    57    1
@<TRIPOS>SUBSTRUCTURE
     1 ZINC000532153088        1 TEMP              0 ****  ****    0 ROOT


##########                                Name:    ZINC001282645012
##########                DOCK_Rotatable_Bonds:                   9
##########                         Heavy_Atoms:                  27
##########                    Molecular_Weight:             372.511
##########                DOCK_Rotatable_Bonds:                   9
##########                       Formal_Charge:          -0.0200004
##########                     HBond_Acceptors:                   6
##########                        HBond_Donors:                   1
##########                         Heavy_Atoms:                  27
##########                          Grid_Score:          -32.659046
##########                     Grid_vdw_energy:          -31.237581
##########                      Grid_es_energy:           -1.421466
##########           Internal_energy_repulsive:           33.246967

@<TRIPOS>MOLECULE
ZINC001282645012
 59 61 1 0 0
SMALL
USER_CHARGES


@<TRIPOS>ATOM
      1 C1         -0.3269   -0.4362   47.3630 C.2     1  ZINC001282645012   -0.1900
      2 C2         -1.3493    0.0878   46.7334 C.2     1  ZINC001282645012   -0.1300
      3 C3         -1.2312    1.4556   46.1120 C.3     1  ZINC001282645012   -0.0500
      4 C4         -0.4241    1.3590   44.8158 C.3     1  ZINC001282645012   -0.1500
      5 C5         -2.6283    1.9981   45.8038 C.3     1  ZINC001282645012   -0.1400
      6 C6         -0.5320    2.3844   47.0710 C.2     1  ZINC001282645012    0.5500
      7 O7          0.4059    3.0533   46.6922 O.2     1  ZINC001282645012   -0.5300
      8 N8         -0.9493    2.4716   48.3497 N.am    1  ZINC001282645012   -0.6300
      9 C9         -0.4413    3.3017   49.4944 C.3     1  ZINC001282645012    0.1200
     10 H10         0.4110    3.9442   49.2742 H       1  ZINC001282645012    0.1300
     11 C11        -0.1952    2.2041   50.5730 C.3     1  ZINC001282645012   -0.1300
     12 C12        -1.3014    1.1599   50.2833 C.3     1  ZINC001282645012   -0.1300
     13 C13        -2.0695    1.7737   49.0673 C.3     1  ZINC001282645012    0.1200
     14 H14        -2.6482    1.0677   48.4716 H       1  ZINC001282645012    0.1200
     15 C15        -2.8726    2.9714   49.6583 C.3     1  ZINC001282645012    0.1300
     16 H16        -3.5830    3.3558   48.9265 H       1  ZINC001282645012    0.1000
     17 N17        -3.5644    2.5728   50.8867 N.am    1  ZINC001282645012   -0.7100
     18 C18        -4.9033    2.6977   50.9769 C.2     1  ZINC001282645012    0.5100
     19 O19        -5.5353    3.1415   50.0417 O.2     1  ZINC001282645012   -0.5100
     20 C20        -5.6151    2.2861   52.2398 C.3     1  ZINC001282645012    0.1200
     21 H21        -4.9139    1.7805   52.9038 H       1  ZINC001282645012    0.1300
     22 C22        -6.1740    3.5274   52.9381 C.3     1  ZINC001282645012   -0.1100
     23 C23        -5.0460    4.5356   53.1661 C.3     1  ZINC001282645012   -0.1000
     24 C24        -5.6140    5.7976   53.8185 C.3     1  ZINC001282645012   -0.1500
     25 C25        -3.9885    3.9188   54.0838 C.3     1  ZINC001282645012   -0.1500
     26 N26        -6.7143    1.3767   51.9065 N.pl3   1  ZINC001282645012   -0.4500
     27 C27        -7.9497    1.3457   52.4952 C.2     1  ZINC001282645012   -0.0600
     28 C28        -8.6455    0.3649   51.8891 C.2     1  ZINC001282645012   -0.0200
     29 N29        -7.8565   -0.1880   50.9560 N.2     1  ZINC001282645012   -0.4900
     30 C30        -6.6999    0.4163   50.9573 C.2     1  ZINC001282645012    0.1900
     31 C31        -1.7439    4.0381   49.9302 C.3     1  ZINC001282645012   -0.1400
     32 H32         0.6007    0.1122   47.4366 H       1  ZINC001282645012    0.1000
     33 H33        -0.4129   -1.4145   47.8122 H       1  ZINC001282645012    0.1000
     34 H34        -2.2768   -0.4605   46.6598 H       1  ZINC001282645012    0.1100
     35 H35        -0.9299    0.6873   44.1221 H       1  ZINC001282645012    0.0700
     36 H36        -0.3388    2.3484   44.3663 H       1  ZINC001282645012    0.0700
     37 H37         0.5711    0.9726   45.0353 H       1  ZINC001282645012    0.0600
     38 H38        -3.2032    2.0668   46.7273 H       1  ZINC001282645012    0.0600
     39 H39        -2.5428    2.9874   45.3543 H       1  ZINC001282645012    0.0700
     40 H40        -3.1339    1.3263   45.1102 H       1  ZINC001282645012    0.0700
     41 H41         0.7930    1.7605   50.4509 H       1  ZINC001282645012    0.0800
     42 H42        -0.3104    2.6176   51.5748 H       1  ZINC001282645012    0.0800
     43 H43        -0.8618    0.1986   50.0175 H       1  ZINC001282645012    0.0700
     44 H44        -1.9652    1.0556   51.1414 H       1  ZINC001282645012    0.0800
     45 H45        -3.0587    2.2191   51.6350 H       1  ZINC001282645012    0.4000
     46 H46        -6.9446    3.9794   52.3136 H       1  ZINC001282645012    0.0900
     47 H47        -6.6052    3.2414   53.8974 H       1  ZINC001282645012    0.0800
     48 H48        -4.5910    4.7942   52.2099 H       1  ZINC001282645012    0.0700
     49 H49        -6.0690    5.5390   54.7747 H       1  ZINC001282645012    0.0600
     50 H50        -4.8104    6.5158   53.9809 H       1  ZINC001282645012    0.0600
     51 H51        -6.3674    6.2369   53.1647 H       1  ZINC001282645012    0.0500
     52 H52        -3.5233    3.0698   53.5829 H       1  ZINC001282645012    0.0600
     53 H53        -3.2285    4.6650   54.3154 H       1  ZINC001282645012    0.0600
     54 H54        -4.4603    3.5822   55.0069 H       1  ZINC001282645012    0.0600
     55 H55        -8.2991    1.9849   53.2925 H       1  ZINC001282645012    0.1700
     56 H56        -9.6609    0.0743   52.1149 H       1  ZINC001282645012    0.1700
     57 H57        -5.8669    0.1827   50.3109 H       1  ZINC001282645012    0.2000
     58 H58        -1.6891    4.2770   50.9922 H       1  ZINC001282645012    0.0900
     59 H59        -1.9170    4.9389   49.3414 H       1  ZINC001282645012    0.0900
@<TRIPOS>BOND
     1     1     2    2
     2     1    32    1
     3     1    33    1
     4     2     3    1
     5     2    34    1
     6     3     4    1
     7     3     5    1
     8     3     6    1
     9     4    35    1
    10     4    36    1
    11     4    37    1
    12     5    38    1
    13     5    39    1
    14     5    40    1
    15     6     7    2
    16     6     8   am
    17     8    13    1
    18     8     9    1
    19     9    10    1
    20     9    31    1
    21     9    11    1
    22    11    12    1
    23    11    41    1
    24    11    42    1
    25    12    13    1
    26    12    43    1
    27    12    44    1
    28    13    14    1
    29    13    15    1
    30    15    16    1
    31    15    17    1
    32    15    31    1
    33    17    18   am
    34    17    45    1
    35    18    19    2
    36    18    20    1
    37    20    21    1
    38    20    22    1
    39    20    26    1
    40    22    23    1
    41    22    46    1
    42    22    47    1
    43    23    24    1
    44    23    25    1
    45    23    48    1
    46    24    49    1
    47    24    50    1
    48    24    51    1
    49    25    52    1
    50    25    53    1
    51    25    54    1
    52    26    30    1
    53    26    27    1
    54    27    28    2
    55    27    55    1
    56    28    29    1
    57    28    56    1
    58    29    30    2
    59    30    57    1
    60    31    58    1
    61    31    59    1
@<TRIPOS>SUBSTRUCTURE
     1 ZINC001282645012        1 TEMP              0 ****  ****    0 ROOT


##########                                Name:    ZINC001344051361
##########                DOCK_Rotatable_Bonds:                   8
##########                         Heavy_Atoms:                  28
##########                    Molecular_Weight:             379.456
##########                DOCK_Rotatable_Bonds:                   8
##########                       Formal_Charge:          -0.0100006
##########                     HBond_Acceptors:                   5
##########                        HBond_Donors:                   0
##########                         Heavy_Atoms:                  28
##########                          Grid_Score:          -32.596195
##########                     Grid_vdw_energy:          -31.895224
##########                      Grid_es_energy:           -0.700971
##########           Internal_energy_repulsive:           30.829365

@<TRIPOS>MOLECULE
ZINC001344051361
 53 56 1 0 0
SMALL
USER_CHARGES


@<TRIPOS>ATOM
      1 O1         -7.8061   -0.6032   51.2021 O.2     1  ZINC001344051361   -0.4800
      2 C2         -8.1666    0.4235   51.7272 C.2     1  ZINC001344051361    0.4800
      3 O3         -7.7059    1.6029   51.2820 O.3     1  ZINC001344051361   -0.3500
      4 C4         -6.7565    1.5677   50.1838 C.3     1  ZINC001344051361    0.0700
      5 C5         -5.5001    2.3506   50.5705 C.3     1  ZINC001344051361   -0.1000
      6 H6         -5.3982    3.2192   49.9200 H       1  ZINC001344051361    0.0900
      7 C7         -5.6135    2.8123   52.0251 C.3     1  ZINC001344051361   -0.1200
      8 C8         -4.3720    3.6235   52.4029 C.3     1  ZINC001344051361   -0.1300
      9 C9         -3.1290    2.7377   52.2723 C.3     1  ZINC001344051361    0.0800
     10 N10        -3.0912    2.1727   50.9165 N.am    1  ZINC001344051361   -0.6100
     11 C11        -1.9959    2.3142   50.1440 C.2     1  ZINC001344051361    0.5600
     12 O12        -1.0270    2.9138   50.5673 O.2     1  ZINC001344051361   -0.5300
     13 C13        -1.9729    1.7401   48.7817 C.ar    1  ZINC001344051361   -0.1300
     14 C14        -2.3765    2.5100   47.6898 C.ar    1  ZINC001344051361   -0.1000
     15 C15        -2.3522    1.9684   46.4211 C.ar    1  ZINC001344051361   -0.1300
     16 C16        -1.9294    0.6649   46.2302 C.ar    1  ZINC001344051361   -0.0900
     17 C17        -1.5285   -0.1039   47.3083 C.ar    1  ZINC001344051361   -0.1300
     18 C18        -1.5420    0.4277   48.5814 C.ar    1  ZINC001344051361   -0.0600
     19 C19        -4.2699    1.4506   50.4184 C.3     1  ZINC001344051361    0.1200
     20 C20        -9.1385    0.3802   52.8782 C.3     1  ZINC001344051361    0.0200
     21 O21        -8.5593    0.1605   54.1659 O.3     1  ZINC001344051361   -0.2500
     22 C22        -8.0102    1.2371   54.7873 C.ar    1  ZINC001344051361    0.1200
     23 C23        -7.3934    1.0874   56.0210 C.ar    1  ZINC001344051361   -0.2000
     24 C24        -6.8355    2.1833   56.6504 C.ar    1  ZINC001344051361   -0.0800
     25 C25        -6.8916    3.4286   56.0520 C.ar    1  ZINC001344051361   -0.1500
     26 C26        -7.5060    3.5803   54.8228 C.ar    1  ZINC001344051361   -0.0800
     27 C27        -8.0600    2.4865   54.1863 C.ar    1  ZINC001344051361   -0.1400
     28 C28       -10.3657    1.2906   52.8011 C.3     1  ZINC001344051361   -0.1700
     29 C29       -10.5207   -0.2199   52.6135 C.3     1  ZINC001344051361   -0.1100
     30 H30        -6.4882    0.5334   49.9686 H       1  ZINC001344051361    0.0800
     31 H31        -7.2072    2.0177   49.2993 H       1  ZINC001344051361    0.0800
     32 H32        -6.5020    3.4331   52.1409 H       1  ZINC001344051361    0.0700
     33 H33        -5.6912    1.9424   52.6773 H       1  ZINC001344051361    0.0700
     34 H34        -4.2800    4.4801   51.7352 H       1  ZINC001344051361    0.0700
     35 H35        -4.4641    3.9717   53.4317 H       1  ZINC001344051361    0.0800
     36 H36        -2.2343    3.3360   52.4439 H       1  ZINC001344051361    0.1100
     37 H37        -3.1771    1.9306   53.0033 H       1  ZINC001344051361    0.0700
     38 H38        -2.7075    3.5273   47.8376 H       1  ZINC001344051361    0.1400
     39 H39        -2.6641    2.5631   45.5753 H       1  ZINC001344051361    0.1300
     40 H40        -1.9126    0.2455   45.2350 H       1  ZINC001344051361    0.1300
     41 H41        -1.1999   -1.1207   47.1525 H       1  ZINC001344051361    0.1300
     42 H42        -1.2286   -0.1734   49.4222 H       1  ZINC001344051361    0.1300
     43 H43        -4.4114    0.5383   50.9980 H       1  ZINC001344051361    0.0700
     44 H44        -4.1274    1.1997   49.3672 H       1  ZINC001344051361    0.1000
     45 H45        -7.3500    0.1152   56.4891 H       1  ZINC001344051361    0.1300
     46 H46        -6.3553    2.0674   57.6109 H       1  ZINC001344051361    0.1300
     47 H47        -6.4551    4.2842   56.5459 H       1  ZINC001344051361    0.1300
     48 H48        -7.5489    4.5541   54.3576 H       1  ZINC001344051361    0.1300
     49 H49        -8.5399    2.6055   53.2262 H       1  ZINC001344051361    0.1300
     50 H50       -10.7316    1.7221   53.7327 H       1  ZINC001344051361    0.1200
     51 H51       -10.4702    1.9208   51.9179 H       1  ZINC001344051361    0.1200
     52 H52       -10.7272   -0.5835   51.6069 H       1  ZINC001344051361    0.1200
     53 H53       -10.9886   -0.7821   53.4217 H       1  ZINC001344051361    0.1200
@<TRIPOS>BOND
     1     1     2    2
     2     2     3    1
     3     2    20    1
     4     3     4    1
     5     4     5    1
     6     4    30    1
     7     4    31    1
     8     5     6    1
     9     5    19    1
    10     5     7    1
    11     7     8    1
    12     7    32    1
    13     7    33    1
    14     8     9    1
    15     8    34    1
    16     8    35    1
    17     9    10    1
    18     9    36    1
    19     9    37    1
    20    10    11   am
    21    10    19    1
    22    11    12    2
    23    11    13    1
    24    13    18   ar
    25    13    14   ar
    26    14    15   ar
    27    14    38    1
    28    15    16   ar
    29    15    39    1
    30    16    17   ar
    31    16    40    1
    32    17    18   ar
    33    17    41    1
    34    18    42    1
    35    19    43    1
    36    19    44    1
    37    20    29    1
    38    20    21    1
    39    20    28    1
    40    21    22    1
    41    22    27   ar
    42    22    23   ar
    43    23    24   ar
    44    23    45    1
    45    24    25   ar
    46    24    46    1
    47    25    26   ar
    48    25    47    1
    49    26    27   ar
    50    26    48    1
    51    27    49    1
    52    28    29    1
    53    28    50    1
    54    28    51    1
    55    29    52    1
    56    29    53    1
@<TRIPOS>SUBSTRUCTURE
     1 ZINC001344051361        1 TEMP              0 ****  ****    0 ROOT


##########                                Name:    ZINC001065334255
##########                DOCK_Rotatable_Bonds:                   7
##########                         Heavy_Atoms:                  23
##########                    Molecular_Weight:             346.448
##########                DOCK_Rotatable_Bonds:                   7
##########                       Formal_Charge:        -5.81145e-07
##########                     HBond_Acceptors:                   8
##########                        HBond_Donors:                   1
##########                         Heavy_Atoms:                  23
##########                          Grid_Score:          -32.581715
##########                     Grid_vdw_energy:          -31.203508
##########                      Grid_es_energy:           -1.378206
##########           Internal_energy_repulsive:           22.941492

@<TRIPOS>MOLECULE
ZINC001065334255
 49 50 1 0 0
SMALL
USER_CHARGES


@<TRIPOS>ATOM
      1 C1        -10.9605    4.0729   48.9430 C.3     1  ZINC001065334255   -0.1500
      2 C2         -9.5592    3.8670   49.5218 C.3     1  ZINC001065334255   -0.0800
      3 C3         -8.7912    5.1897   49.4812 C.3     1  ZINC001065334255   -0.1500
      4 C4         -9.6711    3.3866   50.9701 C.3     1  ZINC001065334255   -0.1400
      5 C5         -8.5356    2.4443   51.2760 C.2     1  ZINC001065334255    0.5100
      6 O6         -8.5885    1.7280   52.2534 O.2     1  ZINC001065334255   -0.5300
      7 N7         -7.4612    2.3974   50.4636 N.am    1  ZINC001065334255   -0.7300
      8 C8         -6.3581    1.4801   50.7601 C.3     1  ZINC001065334255    0.1300
      9 C9         -5.0403    2.2572   50.7807 C.3     1  ZINC001065334255    0.0700
     10 H10        -4.2432    1.6123   51.1509 H       1  ZINC001065334255    0.0700
     11 C11        -4.7010    2.7276   49.3618 C.3     1  ZINC001065334255    0.0800
     12 N12        -3.5375    3.6254   49.4363 N.am    1  ZINC001065334255   -0.6100
     13 C13        -2.4653    3.4391   48.6411 C.2     1  ZINC001065334255    0.5400
     14 O14        -1.5162    4.1903   48.7170 O.2     1  ZINC001065334255   -0.5200
     15 C15        -2.4459    2.2975   47.6576 C.3     1  ZINC001065334255   -0.1100
     16 H16        -3.4544    2.1021   47.2929 H       1  ZINC001065334255    0.1200
     17 C17        -1.8738    1.0353   48.3266 C.3     1  ZINC001065334255   -0.1000
     18 C18        -1.5485   -0.0002   47.2317 C.3     1  ZINC001065334255   -0.5900
     19 S19        -1.1861    0.9871   45.7351 S.o2    1  ZINC001065334255    2.3900
     20 O20         0.1945    0.8734   45.4188 O.2     1  ZINC001065334255   -0.9300
     21 O21        -2.1647    0.7131   44.7419 O.2     1  ZINC001065334255   -0.9300
     22 C22        -1.5079    2.6354   46.4702 C.3     1  ZINC001065334255   -0.5900
     23 C23        -3.5794    4.7330   50.4041 C.3     1  ZINC001065334255    0.0600
     24 C24        -3.9733    4.1649   51.7723 C.3     1  ZINC001065334255    0.0500
     25 O25        -5.1702    3.3949   51.6365 O.3     1  ZINC001065334255   -0.3700
     26 H26       -10.8807    4.4152   47.9113 H       1  ZINC001065334255    0.0600
     27 H27       -11.5076    3.1306   48.9719 H       1  ZINC001065334255    0.0500
     28 H28       -11.4914    4.8196   49.5335 H       1  ZINC001065334255    0.0600
     29 H29        -9.0283    3.1204   48.9313 H       1  ZINC001065334255    0.0800
     30 H30        -9.3222    5.9364   50.0717 H       1  ZINC001065334255    0.0500
     31 H31        -7.7930    5.0430   49.8935 H       1  ZINC001065334255    0.0700
     32 H32        -8.7115    5.5319   48.4494 H       1  ZINC001065334255    0.0500
     33 H33        -9.6232    4.2435   51.6419 H       1  ZINC001065334255    0.0900
     34 H34       -10.6203    2.8689   51.1088 H       1  ZINC001065334255    0.0900
     35 H35        -7.4184    2.9712   49.6826 H       1  ZINC001065334255    0.4000
     36 H36        -6.5221    1.0170   51.7330 H       1  ZINC001065334255    0.0900
     37 H37        -6.3122    0.7072   49.9929 H       1  ZINC001065334255    0.0800
     38 H38        -4.4612    1.8670   48.7371 H       1  ZINC001065334255    0.1100
     39 H39        -5.5514    3.2629   48.9394 H       1  ZINC001065334255    0.0900
     40 H40        -0.9649    1.2896   48.8720 H       1  ZINC001065334255    0.1000
     41 H41        -2.6089    0.6208   49.0163 H       1  ZINC001065334255    0.1000
     42 H42        -0.6773   -0.5905   47.5159 H       1  ZINC001065334255    0.1500
     43 H43        -2.4065   -0.6497   47.0581 H       1  ZINC001065334255    0.1400
     44 H44        -2.0083    3.2874   45.7541 H       1  ZINC001065334255    0.1400
     45 H45        -0.5823    3.0878   46.8259 H       1  ZINC001065334255    0.1500
     46 H46        -2.5970    5.2006   50.4698 H       1  ZINC001065334255    0.1000
     47 H47        -4.3168    5.4703   50.0866 H       1  ZINC001065334255    0.0900
     48 H48        -3.1719    3.5277   52.1463 H       1  ZINC001065334255    0.0600
     49 H49        -4.1446    4.9838   52.4710 H       1  ZINC001065334255    0.1100
@<TRIPOS>BOND
     1     1     2    1
     2     1    26    1
     3     1    27    1
     4     1    28    1
     5     2     3    1
     6     2     4    1
     7     2    29    1
     8     3    30    1
     9     3    31    1
    10     3    32    1
    11     4     5    1
    12     4    33    1
    13     4    34    1
    14     5     6    2
    15     5     7   am
    16     7     8    1
    17     7    35    1
    18     8     9    1
    19     8    36    1
    20     8    37    1
    21     9    10    1
    22     9    25    1
    23     9    11    1
    24    11    12    1
    25    11    38    1
    26    11    39    1
    27    12    13   am
    28    12    23    1
    29    13    14    2
    30    13    15    1
    31    15    16    1
    32    15    22    1
    33    15    17    1
    34    17    18    1
    35    17    40    1
    36    17    41    1
    37    18    19    1
    38    18    42    1
    39    18    43    1
    40    19    20    2
    41    19    21    2
    42    19    22    1
    43    22    44    1
    44    22    45    1
    45    23    24    1
    46    23    46    1
    47    23    47    1
    48    24    25    1
    49    24    48    1
    50    24    49    1
@<TRIPOS>SUBSTRUCTURE
     1 ZINC001065334255        1 TEMP              0 ****  ****    0 ROOT


##########                                Name:    ZINC001411334959
##########                DOCK_Rotatable_Bonds:                   9
##########                         Heavy_Atoms:                  24
##########                    Molecular_Weight:              339.37
##########                DOCK_Rotatable_Bonds:                   9
##########                       Formal_Charge:           0.0199995
##########                     HBond_Acceptors:                   9
##########                        HBond_Donors:                   3
##########                         Heavy_Atoms:                  24
##########                          Grid_Score:          -32.566792
##########                     Grid_vdw_energy:          -30.671658
##########                      Grid_es_energy:           -1.895134
##########           Internal_energy_repulsive:            8.203951

@<TRIPOS>MOLECULE
ZINC001411334959
 46 48 1 0 0
SMALL
USER_CHARGES


@<TRIPOS>ATOM
      1 O1         -6.3956    1.6864   54.7888 O.2     1  ZINC001411334959   -0.5400
      2 C2         -5.4024    2.3375   55.0349 C.2     1  ZINC001411334959    0.5200
      3 C3         -5.1078    2.7557   56.4524 C.3     1  ZINC001411334959   -0.1400
      4 C4         -6.4022    3.2107   57.1294 C.3     1  ZINC001411334959   -0.0100
      5 C5         -6.8899    2.1293   58.0589 C.2     1  ZINC001411334959    0.0100
      6 N6         -6.8929    0.8348   57.8347 N.2     1  ZINC001411334959   -0.2800
      7 N7         -7.3852    0.2391   58.8627 N.pl3   1  ZINC001411334959   -0.2500
      8 N8         -7.7128    1.0901   59.7693 N.2     1  ZINC001411334959   -0.2800
      9 C9         -7.4258    2.2974   59.3378 C.2     1  ZINC001411334959   -0.0200
     10 N10        -4.5593    2.6824   54.0415 N.am    1  ZINC001411334959   -0.7200
     11 C11        -4.8457    2.2758   52.6636 C.3     1  ZINC001411334959    0.1200
     12 C12        -5.0696    3.4583   51.7062 C.3     1  ZINC001411334959   -0.1400
     13 C13        -4.2684    2.6629   50.6621 C.3     1  ZINC001411334959   -0.1200
     14 C14        -3.3152    3.5262   49.8332 C.3     1  ZINC001411334959    0.1300
     15 N15        -2.9401    2.8064   48.6137 N.am    1  ZINC001411334959   -0.7200
     16 C16        -1.8664    3.2016   47.9012 C.2     1  ZINC001411334959    0.5100
     17 O17        -1.2100    4.1522   48.2705 O.2     1  ZINC001411334959   -0.5100
     18 C18        -1.4815    2.4623   46.6457 C.3     1  ZINC001411334959    0.0700
     19 F19        -0.2773    2.9540   46.1304 F       1  ZINC001411334959   -0.1800
     20 C20        -1.3921    0.9344   46.9093 C.3     1  ZINC001411334959   -0.1600
     21 C21        -1.7192    0.3736   45.5024 C.3     1  ZINC001411334959    0.0500
     22 O22        -2.7102    1.2637   44.9649 O.3     1  ZINC001411334959   -0.3700
     23 C23        -2.6059    2.5476   45.5913 C.3     1  ZINC001411334959    0.0400
     24 C24        -3.5865    1.9515   51.8425 C.3     1  ZINC001411334959   -0.1400
     25 H25        -4.6882    1.9120   57.0005 H       1  ZINC001411334959    0.1000
     26 H26        -4.3921    3.5778   56.4475 H       1  ZINC001411334959    0.1000
     27 H27        -6.2141    4.1212   57.6983 H       1  ZINC001411334959    0.1000
     28 H28        -7.1598    3.4064   56.3706 H       1  ZINC001411334959    0.0900
     29 H29        -7.4945   -0.7214   58.9430 H       1  ZINC001411334959    0.4700
     30 H30        -7.5792    3.2293   59.8617 H       1  ZINC001411334959    0.2000
     31 H31        -3.7629    3.1998   54.2390 H       1  ZINC001411334959    0.4000
     32 H32        -5.6177    1.5089   52.6002 H       1  ZINC001411334959    0.1200
     33 H33        -6.1144    3.6078   51.4338 H       1  ZINC001411334959    0.0800
     34 H34        -4.5788    4.3776   52.0256 H       1  ZINC001411334959    0.0900
     35 H35        -4.8834    2.0036   50.0495 H       1  ZINC001411334959    0.1000
     36 H36        -3.8099    4.4601   49.5662 H       1  ZINC001411334959    0.0800
     37 H37        -2.4207    3.7429   50.4170 H       1  ZINC001411334959    0.0800
     38 H38        -3.4643    2.0453   48.3189 H       1  ZINC001411334959    0.4100
     39 H39        -0.3882    0.6479   47.2227 H       1  ZINC001411334959    0.1000
     40 H40        -2.1355    0.6179   47.6410 H       1  ZINC001411334959    0.1100
     41 H41        -0.8270    0.3784   44.8763 H       1  ZINC001411334959    0.0700
     42 H42        -2.1211   -0.6365   45.5819 H       1  ZINC001411334959    0.1000
     43 H43        -3.5489    2.8004   46.0760 H       1  ZINC001411334959    0.0900
     44 H44        -2.3575    3.3034   44.8462 H       1  ZINC001411334959    0.0900
     45 H45        -2.6901    2.4589   52.1993 H       1  ZINC001411334959    0.0900
     46 H46        -3.4338    0.8846   51.6802 H       1  ZINC001411334959    0.0800
@<TRIPOS>BOND
     1     1     2    2
     2     2     3    1
     3     2    10   am
     4     3     4    1
     5     3    25    1
     6     3    26    1
     7     4     5    1
     8     4    27    1
     9     4    28    1
    10     5     9    1
    11     5     6    2
    12     6     7    1
    13     7     8    1
    14     7    29    1
    15     8     9    2
    16     9    30    1
    17    10    11    1
    18    10    31    1
    19    11    24    1
    20    11    12    1
    21    11    32    1
    22    12    13    1
    23    12    33    1
    24    12    34    1
    25    13    14    1
    26    13    24    1
    27    13    35    1
    28    14    15    1
    29    14    36    1
    30    14    37    1
    31    15    16   am
    32    15    38    1
    33    16    17    2
    34    16    18    1
    35    18    23    1
    36    18    19    1
    37    18    20    1
    38    20    21    1
    39    20    39    1
    40    20    40    1
    41    21    22    1
    42    21    41    1
    43    21    42    1
    44    22    23    1
    45    23    43    1
    46    23    44    1
    47    24    45    1
    48    24    46    1
@<TRIPOS>SUBSTRUCTURE
     1 ZINC001411334959        1 TEMP              0 ****  ****    0 ROOT


##########                                Name:    ZINC000058043838
##########                DOCK_Rotatable_Bonds:                   8
##########                         Heavy_Atoms:                  29
##########                    Molecular_Weight:             412.469
##########                DOCK_Rotatable_Bonds:                   8
##########                       Formal_Charge:           0.0200001
##########                     HBond_Acceptors:                   9
##########                        HBond_Donors:                   0
##########                         Heavy_Atoms:                  29
##########                          Grid_Score:          -32.556053
##########                     Grid_vdw_energy:          -31.501539
##########                      Grid_es_energy:           -1.054514
##########           Internal_energy_repulsive:           12.228006

@<TRIPOS>MOLECULE
ZINC000058043838
 49 51 1 0 0
SMALL
USER_CHARGES


@<TRIPOS>ATOM
      1 C1        -10.9379   -0.2590   52.5488 C.3     1  ZINC000058043838    0.0300
      2 O2        -10.5391    0.9856   53.1268 O.3     1  ZINC000058043838   -0.3800
      3 C3         -9.3587    1.5443   52.5465 C.3     1  ZINC000058043838    0.0300
      4 C4         -8.9825    2.8270   53.2908 C.3     1  ZINC000058043838    0.1000
      5 N5         -7.7200    2.6242   54.0059 N.am    1  ZINC000058043838   -0.5200
      6 C6         -6.5549    2.9819   53.4306 C.2     1  ZINC000058043838    0.5100
      7 O7         -6.5514    3.4702   52.3205 O.2     1  ZINC000058043838   -0.4500
      8 C8         -5.2562    2.7749   54.1668 C.3     1  ZINC000058043838   -0.0900
      9 C9         -4.1545    2.5034   53.1752 C.ar    1  ZINC000058043838   -0.1400
     10 C10        -2.8800    3.0063   53.3868 C.ar    1  ZINC000058043838   -0.0500
     11 C11        -1.8974    2.7309   52.4478 C.ar    1  ZINC000058043838   -0.1700
     12 C12        -2.2189    1.9697   51.3402 C.ar    1  ZINC000058043838    0.1300
     13 C13        -1.1590    1.6637   50.3136 C.3     1  ZINC000058043838   -0.1100
     14 N14        -3.4426    1.5075   51.1713 N.ar    1  ZINC000058043838   -0.4800
     15 C15        -4.4004    1.7452   52.0459 C.ar    1  ZINC000058043838    0.1200
     16 C16        -7.7238    2.0631   55.2770 C.2     1  ZINC000058043838    0.3100
     17 N17        -7.8864    0.8039   55.5398 N.2     1  ZINC000058043838   -0.4700
     18 C18        -7.8602    0.4471   56.8163 C.2     1  ZINC000058043838    0.1100
     19 C19        -8.0331   -0.9608   57.2496 C.ar    1  ZINC000058043838    0.0400
     20 C20        -9.1622   -1.6792   56.8594 C.ar    1  ZINC000058043838   -0.0800
     21 C21        -9.3175   -2.9890   57.2652 C.ar    1  ZINC000058043838   -0.0500
     22 C22        -8.3554   -3.5892   58.0575 C.ar    1  ZINC000058043838   -0.0400
     23 N23        -8.5278   -4.9946   58.4895 N.pl3   1  ZINC000058043838    0.0300
     24 O24        -9.5151   -5.6202   58.1473 O.2     1  ZINC000058043838   -0.1600
     25 O25        -7.6821   -5.5253   59.1872 O.2     1  ZINC000058043838   -0.1600
     26 C26        -7.2327   -2.8813   58.4474 C.ar    1  ZINC000058043838   -0.0500
     27 C27        -7.0645   -1.5723   58.0436 C.ar    1  ZINC000058043838   -0.1100
     28 C28        -7.6657    1.4500   57.6913 C.2     1  ZINC000058043838   -0.2600
     29 S29        -7.5011    2.9503   56.7819 S.3     1  ZINC000058043838    0.1500
     30 H30       -11.1371   -0.1189   51.4863 H       1  ZINC000058043838    0.0500
     31 H31       -10.1399   -0.9906   52.6753 H       1  ZINC000058043838    0.0400
     32 H32       -11.8407   -0.6167   53.0437 H       1  ZINC000058043838    0.0900
     33 H33        -8.5418    0.8269   52.6229 H       1  ZINC000058043838    0.0600
     34 H34        -9.5436    1.7741   51.4971 H       1  ZINC000058043838    0.0800
     35 H35        -8.8683    3.6417   52.5759 H       1  ZINC000058043838    0.1200
     36 H36        -9.7679    3.0768   54.0042 H       1  ZINC000058043838    0.1000
     37 H37        -5.0167    3.6707   54.7397 H       1  ZINC000058043838    0.1100
     38 H38        -5.3535    1.9260   54.8434 H       1  ZINC000058043838    0.1100
     39 H39        -2.6578    3.5987   54.2620 H       1  ZINC000058043838    0.1300
     40 H40        -0.8936    3.1067   52.5803 H       1  ZINC000058043838    0.1400
     41 H41        -0.6522    0.7361   50.5799 H       1  ZINC000058043838    0.0800
     42 H42        -1.6231    1.5557   49.3333 H       1  ZINC000058043838    0.0800
     43 H43        -0.4350    2.4780   50.2851 H       1  ZINC000058043838    0.0800
     44 H44        -5.3906    1.3500   51.8735 H       1  ZINC000058043838    0.1500
     45 H45        -9.9140   -1.2115   56.2411 H       1  ZINC000058043838    0.1600
     46 H46       -10.1920   -3.5465   56.9638 H       1  ZINC000058043838    0.1600
     47 H47        -6.4848   -3.3548   59.0661 H       1  ZINC000058043838    0.1600
     48 H48        -6.1874   -1.0207   58.3482 H       1  ZINC000058043838    0.1500
     49 H49        -7.6154    1.3519   58.7657 H       1  ZINC000058043838    0.1800
@<TRIPOS>BOND
     1     1     2    1
     2     1    30    1
     3     1    31    1
     4     1    32    1
     5     2     3    1
     6     3     4    1
     7     3    33    1
     8     3    34    1
     9     4     5    1
    10     4    35    1
    11     4    36    1
    12     5     6   am
    13     5    16    1
    14     6     7    2
    15     6     8    1
    16     8     9    1
    17     8    37    1
    18     8    38    1
    19     9    15   ar
    20     9    10   ar
    21    10    11   ar
    22    10    39    1
    23    11    12   ar
    24    11    40    1
    25    12    13    1
    26    12    14   ar
    27    13    41    1
    28    13    42    1
    29    13    43    1
    30    14    15   ar
    31    15    44    1
    32    16    29    1
    33    16    17    2
    34    17    18    1
    35    18    19    1
    36    18    28    2
    37    19    27   ar
    38    19    20   ar
    39    20    21   ar
    40    20    45    1
    41    21    22   ar
    42    21    46    1
    43    22    23    1
    44    22    26   ar
    45    23    24    2
    46    23    25    2
    47    26    27   ar
    48    26    47    1
    49    27    48    1
    50    28    29    1
    51    28    49    1
@<TRIPOS>SUBSTRUCTURE
     1 ZINC000058043838        1 TEMP              0 ****  ****    0 ROOT


##########                                Name:    ZINC000284209281
##########                DOCK_Rotatable_Bonds:                   8
##########                         Heavy_Atoms:                  26
##########                    Molecular_Weight:             353.424
##########                DOCK_Rotatable_Bonds:                   8
##########                       Formal_Charge:          0.00999954
##########                     HBond_Acceptors:                   7
##########                        HBond_Donors:                   1
##########                         Heavy_Atoms:                  26
##########                          Grid_Score:          -32.535263
##########                     Grid_vdw_energy:          -30.753471
##########                      Grid_es_energy:           -1.781791
##########           Internal_energy_repulsive:           10.166066

@<TRIPOS>MOLECULE
ZINC000284209281
 49 51 1 0 0
SMALL
USER_CHARGES


@<TRIPOS>ATOM
      1 O1         -7.8126    5.5826   51.1644 O.2     1  <0>        -0.5100
      2 C2         -8.1624    4.4291   51.0238 C.2     1  <0>         0.5100
      3 N3         -9.2409    4.1392   50.2695 N.am    1  <0>        -0.7000
      4 C4         -9.9948    5.2170   49.6243 C.3     1  <0>         0.1200
      5 C5        -10.4365    4.7669   48.2303 C.3     1  <0>        -0.1000
      6 C6        -10.8842    5.9653   47.4339 C.ar    1  <0>        -0.0400
      7 C7        -12.2057    6.3840   47.4638 C.ar    1  <0>        -0.1700
      8 C8        -12.5796    7.4873   46.7203 C.ar    1  <0>         0.1000
      9 N9        -11.6965    8.1386   45.9889 N.ar    1  <0>        -0.4900
     10 C10       -10.4317    7.7690   45.9367 C.ar    1  <0>         0.1000
     11 C11        -9.9834    6.6789   46.6583 C.ar    1  <0>        -0.1700
     12 C12        -7.3934    3.3296   51.6820 C.2     1  <0>         0.5100
     13 O13        -7.6267    3.0317   52.8350 O.2     1  <0>        -0.5200
     14 N14        -6.4405    2.6688   50.9949 N.am    1  <0>        -0.5800
     15 C15        -6.1375    3.0178   49.5987 C.3     1  <0>         0.0800
     16 C16        -4.6256    3.2305   49.4671 C.3     1  <0>         0.0400
     17 N17        -3.9216    2.0469   49.9785 N.3     1  <0>        -0.5300
     18 C18        -2.4794    2.1371   49.7137 C.3     1  <0>         0.1000
     19 C19        -2.1593    1.4218   48.4264 C.ar    1  <0>         0.1300
     20 C20        -1.4217    0.2537   48.4595 C.ar    1  <0>        -0.1500
     21 C21        -1.1330   -0.3970   47.2694 C.ar    1  <0>        -0.0700
     22 C22        -1.5994    0.1543   46.0860 C.ar    1  <0>        -0.1700
     23 C23        -2.3314    1.3259   46.1312 C.ar    1  <0>         0.1000
     24 N24        -2.5912    1.9148   47.2820 N.ar    1  <0>        -0.4800
     25 C25        -4.1825    1.8489   51.4104 C.3     1  <0>         0.0400
     26 C26        -5.6720    1.5837   51.6235 C.3     1  <0>         0.1100
     27 H27        -9.5180    3.2168   50.1537 H       1  <0>         0.4100
     28 H28       -10.8729    5.4558   50.2243 H       1  <0>         0.0800
     29 H29        -9.3628    6.1009   49.5375 H       1  <0>         0.0800
     30 H30        -9.6012    4.2847   47.7226 H       1  <0>         0.0900
     31 H31       -11.2627    4.0616   48.3211 H       1  <0>         0.0900
     32 H32       -12.9338    5.8543   48.0603 H       1  <0>         0.1400
     33 H33       -13.6070    7.8198   46.7382 H       1  <0>         0.1600
     34 H34        -9.7374    8.3271   45.3260 H       1  <0>         0.1600
     35 H35        -8.9462    6.3814   46.6117 H       1  <0>         0.1400
     36 H36        -6.4516    2.2064   48.9420 H       1  <0>         0.0800
     37 H37        -6.6611    3.9348   49.3284 H       1  <0>         0.1400
     38 H38        -4.3694    3.3813   48.4185 H       1  <0>         0.0900
     39 H39        -4.3301    4.1069   50.0439 H       1  <0>         0.0400
     40 H40        -2.1903    3.1846   49.6289 H       1  <0>         0.0900
     41 H41        -1.9299    1.6737   50.5332 H       1  <0>         0.0600
     42 H42        -1.0741   -0.1471   49.4001 H       1  <0>         0.1400
     43 H43        -0.5583   -1.3113   47.2646 H       1  <0>         0.1400
     44 H44        -1.3931   -0.3254   45.1407 H       1  <0>         0.1400
     45 H45        -2.6980    1.7620   45.2137 H       1  <0>         0.1600
     46 H46        -3.6050    0.9979   51.7711 H       1  <0>         0.1000
     47 H47        -3.8932    2.7446   51.9602 H       1  <0>         0.0400
     48 H48        -5.8889    1.5501   52.6912 H       1  <0>         0.1000
     49 H49        -5.9447    0.6348   51.1616 H       1  <0>         0.0800
@<TRIPOS>BOND
     1     1     2    2
     2     2     3   am
     3     2    12    1
     4     3     4    1
     5     3    27    1
     6     4     5    1
     7     4    28    1
     8     4    29    1
     9     5     6    1
    10     5    30    1
    11     5    31    1
    12     6    11   ar
    13     6     7   ar
    14     7     8   ar
    15     7    32    1
    16     8     9   ar
    17     8    33    1
    18     9    10   ar
    19    10    11   ar
    20    10    34    1
    21    11    35    1
    22    12    13    2
    23    12    14   am
    24    14    26    1
    25    14    15    1
    26    15    16    1
    27    15    36    1
    28    15    37    1
    29    16    17    1
    30    16    38    1
    31    16    39    1
    32    17    18    1
    33    17    25    1
    34    18    19    1
    35    18    40    1
    36    18    41    1
    37    19    24   ar
    38    19    20   ar
    39    20    21   ar
    40    20    42    1
    41    21    22   ar
    42    21    43    1
    43    22    23   ar
    44    22    44    1
    45    23    24   ar
    46    23    45    1
    47    25    26    1
    48    25    46    1
    49    25    47    1
    50    26    48    1
    51    26    49    1
@<TRIPOS>SUBSTRUCTURE
     1 <0>         1 TEMP              0 ****  ****    0 ROOT


##########                                Name:    ZINC000840649129
##########                DOCK_Rotatable_Bonds:                   8
##########                         Heavy_Atoms:                  26
##########                    Molecular_Weight:             376.839
##########                DOCK_Rotatable_Bonds:                   8
##########                       Formal_Charge:          -0.0199998
##########                     HBond_Acceptors:                   7
##########                        HBond_Donors:                   3
##########                         Heavy_Atoms:                  26
##########                          Grid_Score:          -32.469913
##########                     Grid_vdw_energy:          -31.043303
##########                      Grid_es_energy:           -1.426610
##########           Internal_energy_repulsive:           12.213258

@<TRIPOS>MOLECULE
ZINC000840649129
 47 48 1 0 0
SMALL
USER_CHARGES


@<TRIPOS>ATOM
      1 C1         -8.4553   -5.6858   58.7968 C.3     1  ZINC000840649129    0.0200
      2 O2         -8.3868   -4.8383   57.6483 O.3     1  ZINC000840649129   -0.2900
      3 C3         -8.2141   -3.5106   57.8716 C.ar    1  ZINC000840649129    0.1400
      4 C4         -6.9881   -3.0332   58.3089 C.ar    1  ZINC000840649129   -0.1700
      5 C5         -6.8105   -1.6834   58.5367 C.ar    1  ZINC000840649129   -0.1200
      6 C6         -7.8580   -0.7921   58.3294 C.ar    1  ZINC000840649129    0.1700
      7 N7         -7.6683    0.5748   58.5629 N.pl3   1  ZINC000840649129   -0.8800
      8 C8         -9.0875   -1.2538   57.8920 C.ar    1  ZINC000840649129   -0.1000
      9 C9         -9.2733   -2.6183   57.6552 C.ar    1  ZINC000840649129   -0.1200
     10 C10       -10.5793   -3.1180   57.1889 C.2     1  ZINC000840649129    0.5100
     11 O11       -10.7205   -3.4614   56.0318 O.2     1  ZINC000840649129   -0.4800
     12 O12       -11.6165   -3.1941   58.0457 O.3     1  ZINC000840649129   -0.3200
     13 C13       -12.2811   -1.9494   58.3885 C.3     1  ZINC000840649129    0.0800
     14 H14       -12.0309   -1.1884   57.6494 H       1  ZINC000840649129    0.1200
     15 C15       -11.8252   -1.4953   59.7512 C.2     1  ZINC000840649129    0.5200
     16 O16       -11.2437   -2.2668   60.4845 O.2     1  ZINC000840649129   -0.4900
     17 N17       -12.0636   -0.2318   60.1551 N.am    1  ZINC000840649129   -0.6600
     18 C18       -11.6402    0.1900   61.4210 C.ar    1  ZINC000840649129    0.1600
     19 C19       -10.3044    0.0767   61.7811 C.ar    1  ZINC000840649129   -0.1400
     20 C20        -9.8894    0.4943   63.0310 C.ar    1  ZINC000840649129   -0.0900
     21 C21       -10.8025    1.0249   63.9232 C.ar    1  ZINC000840649129   -0.1300
     22 C22       -12.1344    1.1391   63.5685 C.ar    1  ZINC000840649129   -0.0900
     23 C23       -12.5552    0.7286   62.3179 C.ar    1  ZINC000840649129   -0.0700
     24 Cl24      -14.2271    0.8727   61.8728 Cl      1  ZINC000840649129   -0.0700
     25 C25       -13.7955   -2.1672   58.4038 C.3     1  ZINC000840649129   -0.1100
     26 C26       -14.3727   -1.8325   57.0269 C.3     1  ZINC000840649129   -0.1600
     27 C27       -14.0971   -3.6287   58.7415 C.3     1  ZINC000840649129   -0.1500
     28 H28        -8.5943   -6.7190   58.4782 H       1  ZINC000840649129    0.1000
     29 H29        -7.5293   -5.6026   59.3656 H       1  ZINC000840649129    0.0600
     30 H30        -9.2948   -5.3826   59.4225 H       1  ZINC000840649129    0.0600
     31 H31        -6.1702   -3.7193   58.4721 H       1  ZINC000840649129    0.1400
     32 H32        -5.8533   -1.3175   58.8780 H       1  ZINC000840649129    0.1300
     33 H33        -6.8071    0.8996   58.8691 H       1  ZINC000840649129    0.4000
     34 H34        -8.3981    1.1973   58.4188 H       1  ZINC000840649129    0.4000
     35 H35        -9.9000   -0.5608   57.7310 H       1  ZINC000840649129    0.1400
     36 H36       -12.5286    0.3853   59.5687 H       1  ZINC000840649129    0.4200
     37 H37        -9.5903   -0.3379   61.0850 H       1  ZINC000840649129    0.1700
     38 H38        -8.8502    0.4059   63.3115 H       1  ZINC000840649129    0.1300
     39 H39       -10.4750    1.3505   64.8995 H       1  ZINC000840649129    0.1300
     40 H40       -12.8453    1.5536   64.2678 H       1  ZINC000840649129    0.1400
     41 H41       -14.2481   -1.5199   59.1548 H       1  ZINC000840649129    0.0900
     42 H42       -13.8317   -2.3883   56.2611 H       1  ZINC000840649129    0.0700
     43 H43       -15.4271   -2.1071   56.9985 H       1  ZINC000840649129    0.0800
     44 H44       -14.2705   -0.7634   56.8403 H       1  ZINC000840649129    0.0600
     45 H45       -13.6858   -3.8673   59.7224 H       1  ZINC000840649129    0.0500
     46 H46       -15.1759   -3.7839   58.7524 H       1  ZINC000840649129    0.0600
     47 H47       -13.6443   -4.2762   57.9906 H       1  ZINC000840649129    0.0700
@<TRIPOS>BOND
     1     1     2    1
     2     1    28    1
     3     1    29    1
     4     1    30    1
     5     2     3    1
     6     3     9   ar
     7     3     4   ar
     8     4     5   ar
     9     4    31    1
    10     5     6   ar
    11     5    32    1
    12     6     7    1
    13     6     8   ar
    14     7    33    1
    15     7    34    1
    16     8     9   ar
    17     8    35    1
    18     9    10    1
    19    10    11    2
    20    10    12    1
    21    12    13    1
    22    13    14    1
    23    13    15    1
    24    13    25    1
    25    15    16    2
    26    15    17   am
    27    17    18    1
    28    17    36    1
    29    18    23   ar
    30    18    19   ar
    31    19    20   ar
    32    19    37    1
    33    20    21   ar
    34    20    38    1
    35    21    22   ar
    36    21    39    1
    37    22    23   ar
    38    22    40    1
    39    23    24    1
    40    25    26    1
    41    25    27    1
    42    25    41    1
    43    26    42    1
    44    26    43    1
    45    26    44    1
    46    27    45    1
    47    27    46    1
    48    27    47    1
@<TRIPOS>SUBSTRUCTURE
     1 ZINC000840649129        1 TEMP              0 ****  ****    0 ROOT


##########                                Name:    ZINC000031496632
##########                DOCK_Rotatable_Bonds:                   8
##########                         Heavy_Atoms:                  30
##########                    Molecular_Weight:             423.539
##########                DOCK_Rotatable_Bonds:                   8
##########                       Formal_Charge:          -0.0100009
##########                     HBond_Acceptors:                   8
##########                        HBond_Donors:                   1
##########                         Heavy_Atoms:                  30
##########                          Grid_Score:          -32.466999
##########                     Grid_vdw_energy:          -31.484749
##########                      Grid_es_energy:           -0.982250
##########           Internal_energy_repulsive:            7.180081

@<TRIPOS>MOLECULE
ZINC000031496632
 55 58 1 0 0
SMALL
USER_CHARGES


@<TRIPOS>ATOM
      1 C1         -8.0631    5.5242   50.3665 C.3     1  ZINC000031496632   -0.1600
      2 C2         -9.2870    4.6215   50.5335 C.3     1  ZINC000031496632    0.1600
      3 C3        -10.0042    4.4810   49.1893 C.3     1  ZINC000031496632   -0.1600
      4 N4         -8.8593    3.3000   50.9992 N.pl3   1  ZINC000031496632   -0.3900
      5 N5         -7.6131    2.7173   50.7489 N.2     1  ZINC000031496632   -0.2300
      6 C6         -7.5506    1.5396   51.3013 C.2     1  ZINC000031496632    0.0800
      7 C7         -8.8240    1.2957   51.9700 C.ar    1  ZINC000031496632   -0.2100
      8 C8         -9.3455    0.2331   52.7167 C.ar    1  ZINC000031496632    0.0100
      9 C9        -10.6347    0.3559   53.2109 C.ar    1  ZINC000031496632    0.0500
     10 N10       -11.2047   -0.6782   53.9649 N.am    1  ZINC000031496632   -0.6600
     11 C11       -11.3735   -0.5294   55.2937 C.2     1  ZINC000031496632    0.5500
     12 O12       -11.0310    0.5028   55.8384 O.2     1  ZINC000031496632   -0.4900
     13 C13       -11.9730   -1.6171   56.0868 C.ar    1  ZINC000031496632   -0.1300
     14 C14       -13.3339   -1.5897   56.4020 C.ar    1  ZINC000031496632   -0.0600
     15 C15       -13.8883   -2.6097   57.1439 C.ar    1  ZINC000031496632   -0.1400
     16 C16       -13.1032   -3.6650   57.5811 C.ar    1  ZINC000031496632   -0.0600
     17 C17       -11.7578   -3.7071   57.2792 C.ar    1  ZINC000031496632   -0.1500
     18 C18       -11.1812   -2.6910   56.5261 C.ar    1  ZINC000031496632   -0.0600
     19 S19        -9.4632   -2.7418   56.1380 S.3     1  ZINC000031496632    0.0900
     20 C20        -8.6764   -2.2890   57.7085 C.3     1  ZINC000031496632   -0.2000
     21 C21        -8.3120   -0.8269   57.6845 C.2     1  ZINC000031496632    0.5500
     22 O22        -8.1727   -0.2539   56.6248 O.2     1  ZINC000031496632   -0.5200
     23 N23        -8.1408   -0.1561   58.8410 N.am    1  ZINC000031496632   -0.6200
     24 C24        -8.2700   -0.7266   60.1897 C.3     1  ZINC000031496632    0.1000
     25 C25        -8.0126    0.4143   61.1965 C.3     1  ZINC000031496632   -0.1300
     26 C26        -8.3103    1.6879   60.3618 C.3     1  ZINC000031496632   -0.1300
     27 C27        -7.7865    1.2698   58.9627 C.3     1  ZINC000031496632    0.1000
     28 C28       -11.3583    1.5185   52.9508 C.ar    1  ZINC000031496632    0.1600
     29 N29       -10.8458    2.5029   52.2461 N.ar    1  ZINC000031496632   -0.4900
     30 C30        -9.6148    2.4419   51.7541 C.ar    1  ZINC000031496632    0.3000
     31 H31        -8.3812    6.5075   50.0199 H       1  ZINC000031496632    0.0800
     32 H32        -7.5520    5.6244   51.3241 H       1  ZINC000031496632    0.0600
     33 H33        -7.3837    5.0841   49.6365 H       1  ZINC000031496632    0.0700
     34 H34        -9.9663    5.0618   51.2634 H       1  ZINC000031496632    0.1100
     35 H35       -10.3224    5.4642   48.8427 H       1  ZINC000031496632    0.0800
     36 H36        -9.3249    4.0408   48.4593 H       1  ZINC000031496632    0.0700
     37 H37       -10.8761    3.8379   49.3082 H       1  ZINC000031496632    0.0600
     38 H38        -6.7079    0.8648   51.2698 H       1  ZINC000031496632    0.2000
     39 H39        -8.7612   -0.6561   52.9019 H       1  ZINC000031496632    0.1500
     40 H40       -11.4778   -1.5014   53.5306 H       1  ZINC000031496632    0.4100
     41 H41       -13.9505   -0.7697   56.0647 H       1  ZINC000031496632    0.1300
     42 H42       -14.9405   -2.5867   57.3864 H       1  ZINC000031496632    0.1300
     43 H43       -13.5476   -4.4594   58.1625 H       1  ZINC000031496632    0.1300
     44 H44       -11.1530   -4.5326   57.6243 H       1  ZINC000031496632    0.1300
     45 H45        -9.3686   -2.4774   58.5291 H       1  ZINC000031496632    0.1100
     46 H46        -7.7753   -2.8859   57.8488 H       1  ZINC000031496632    0.1100
     47 H47        -9.2753   -1.1243   60.3292 H       1  ZINC000031496632    0.0700
     48 H48        -7.5334   -1.5178   60.3297 H       1  ZINC000031496632    0.0700
     49 H49        -8.6934    0.3412   62.0446 H       1  ZINC000031496632    0.0900
     50 H50        -6.9754    0.4063   61.5314 H       1  ZINC000031496632    0.0800
     51 H51        -9.3797    1.8970   60.3359 H       1  ZINC000031496632    0.0800
     52 H52        -7.7554    2.5444   60.7448 H       1  ZINC000031496632    0.0900
     53 H53        -6.7063    1.4039   58.9064 H       1  ZINC000031496632    0.0700
     54 H54        -8.2827    1.8483   58.1835 H       1  ZINC000031496632    0.0800
     55 H55       -12.3626    1.6126   53.3366 H       1  ZINC000031496632    0.1700
@<TRIPOS>BOND
     1     1     2    1
     2     1    31    1
     3     1    32    1
     4     1    33    1
     5     2     3    1
     6     2     4    1
     7     2    34    1
     8     3    35    1
     9     3    36    1
    10     3    37    1
    11     4    30    1
    12     4     5    1
    13     5     6    2
    14     6     7    1
    15     6    38    1
    16     7    30   ar
    17     7     8   ar
    18     8     9   ar
    19     8    39    1
    20     9    10    1
    21     9    28   ar
    22    10    11   am
    23    10    40    1
    24    11    12    2
    25    11    13    1
    26    13    18   ar
    27    13    14   ar
    28    14    15   ar
    29    14    41    1
    30    15    16   ar
    31    15    42    1
    32    16    17   ar
    33    16    43    1
    34    17    18   ar
    35    17    44    1
    36    18    19    1
    37    19    20    1
    38    20    21    1
    39    20    45    1
    40    20    46    1
    41    21    22    2
    42    21    23   am
    43    23    27    1
    44    23    24    1
    45    24    25    1
    46    24    47    1
    47    24    48    1
    48    25    26    1
    49    25    49    1
    50    25    50    1
    51    26    27    1
    52    26    51    1
    53    26    52    1
    54    27    53    1
    55    27    54    1
    56    28    29   ar
    57    28    55    1
    58    29    30   ar
@<TRIPOS>SUBSTRUCTURE
     1 ZINC000031496632        1 TEMP              0 ****  ****    0 ROOT


##########                                Name:    ZINC000892249927
##########                DOCK_Rotatable_Bonds:                   8
##########                         Heavy_Atoms:                  27
##########                    Molecular_Weight:             364.487
##########                DOCK_Rotatable_Bonds:                   8
##########                       Formal_Charge:          -0.0300015
##########                     HBond_Acceptors:                   4
##########                        HBond_Donors:                   1
##########                         Heavy_Atoms:                  27
##########                          Grid_Score:          -32.463875
##########                     Grid_vdw_energy:          -31.501762
##########                      Grid_es_energy:           -0.962114
##########           Internal_energy_repulsive:           15.003988

@<TRIPOS>MOLECULE
ZINC000892249927
 55 58 1 0 0
SMALL
USER_CHARGES


@<TRIPOS>ATOM
      1 O1         -4.2852    4.7585   53.4721 O.2     1  ZINC000892249927   -0.5300
      2 C2         -4.0456    3.5819   53.3011 C.2     1  ZINC000892249927    0.5100
      3 C3         -4.0225    2.6391   54.4765 C.3     1  ZINC000892249927   -0.1400
      4 C4         -4.5250    3.3676   55.7246 C.3     1  ZINC000892249927   -0.1000
      5 C5         -6.0510    3.4668   55.6776 C.3     1  ZINC000892249927   -0.0800
      6 C6         -6.6537    2.1823   56.1855 C.ar    1  ZINC000892249927   -0.0900
      7 C7         -7.3493    1.3564   55.3224 C.ar    1  ZINC000892249927   -0.1100
      8 C8         -7.9022    0.1782   55.7883 C.ar    1  ZINC000892249927   -0.1100
      9 C9         -7.7590   -0.1744   57.1172 C.ar    1  ZINC000892249927   -0.0500
     10 C10        -8.3621   -1.4587   57.6252 C.3     1  ZINC000892249927   -0.1200
     11 C11        -7.6059   -2.2080   58.7241 C.3     1  ZINC000892249927   -0.1800
     12 C12        -8.9029   -1.4675   59.0564 C.3     1  ZINC000892249927   -0.1700
     13 C13        -7.0621    0.6507   57.9800 C.ar    1  ZINC000892249927   -0.1200
     14 C14        -6.5060    1.8270   57.5132 C.ar    1  ZINC000892249927   -0.1100
     15 N15        -3.8057    3.1165   52.0592 N.am    1  ZINC000892249927   -0.7300
     16 C16        -3.8282    4.0330   50.9165 C.3     1  ZINC000892249927    0.1400
     17 H17        -3.4610    5.0114   51.2264 H       1  ZINC000892249927    0.1000
     18 C18        -5.2620    4.1658   50.3943 C.3     1  ZINC000892249927   -0.1700
     19 C19        -5.7416    2.8019   49.8906 C.3     1  ZINC000892249927    0.0600
     20 O20        -4.8533    2.3313   48.8750 O.3     1  ZINC000892249927   -0.3700
     21 C21        -3.5078    2.1429   49.3182 C.3     1  ZINC000892249927    0.1400
     22 H22        -3.4924    1.4255   50.1385 H       1  ZINC000892249927    0.0700
     23 C23        -2.6716    1.6211   48.1782 C.ar    1  ZINC000892249927   -0.1400
     24 C24        -2.7497    2.2075   46.9246 C.ar    1  ZINC000892249927   -0.0700
     25 C25        -1.9614    1.6944   45.9056 C.ar    1  ZINC000892249927   -0.1700
     26 C26        -1.1301    0.6232   46.1717 C.ar    1  ZINC000892249927    0.1000
     27 N27        -1.0815    0.0901   47.3772 N.ar    1  ZINC000892249927   -0.4900
     28 C28        -1.8127    0.5553   48.3709 C.ar    1  ZINC000892249927    0.1300
     29 C29        -2.9367    3.4814   49.7997 C.3     1  ZINC000892249927   -0.1500
     30 H30        -4.6676    1.7850   54.2701 H       1  ZINC000892249927    0.0900
     31 H31        -3.0029    2.2922   54.6442 H       1  ZINC000892249927    0.0900
     32 H32        -4.2240    2.8143   56.6142 H       1  ZINC000892249927    0.0700
     33 H33        -4.0966    4.3694   55.7577 H       1  ZINC000892249927    0.0700
     34 H34        -6.3809    4.2954   56.3040 H       1  ZINC000892249927    0.0700
     35 H35        -6.3725    3.6375   54.6501 H       1  ZINC000892249927    0.0700
     36 H36        -7.4613    1.6319   54.2841 H       1  ZINC000892249927    0.1200
     37 H37        -8.4464   -0.4667   55.1141 H       1  ZINC000892249927    0.1200
     38 H38        -8.8929   -2.0546   56.8828 H       1  ZINC000892249927    0.1100
     39 H39        -7.6392   -3.2974   58.7048 H       1  ZINC000892249927    0.1000
     40 H40        -6.6722   -1.7722   59.0796 H       1  ZINC000892249927    0.1000
     41 H41        -8.8225   -0.5445   59.6305 H       1  ZINC000892249927    0.1000
     42 H42        -9.7893   -2.0697   59.2557 H       1  ZINC000892249927    0.1000
     43 H43        -6.9499    0.3750   59.0182 H       1  ZINC000892249927    0.1200
     44 H44        -5.9616    2.4717   58.1873 H       1  ZINC000892249927    0.1200
     45 H45        -3.6180    2.1747   51.9220 H       1  ZINC000892249927    0.4000
     46 H46        -5.9130    4.5061   51.1996 H       1  ZINC000892249927    0.0800
     47 H47        -5.2865    4.8854   49.5759 H       1  ZINC000892249927    0.0800
     48 H48        -5.7554    2.0930   50.7184 H       1  ZINC000892249927    0.0500
     49 H49        -6.7460    2.8993   49.4784 H       1  ZINC000892249927    0.1000
     50 H50        -3.4091    3.0439   46.7456 H       1  ZINC000892249927    0.1300
     51 H51        -1.9970    2.1264   44.9164 H       1  ZINC000892249927    0.1400
     52 H52        -0.5133    0.2175   45.3835 H       1  ZINC000892249927    0.1600
     53 H53        -1.7461    0.0927   49.3446 H       1  ZINC000892249927    0.1600
     54 H54        -2.9138    4.1875   48.9695 H       1  ZINC000892249927    0.0900
     55 H55        -1.9259    3.3308   50.1789 H       1  ZINC000892249927    0.0800
@<TRIPOS>BOND
     1     1     2    2
     2     2     3    1
     3     2    15   am
     4     3     4    1
     5     3    30    1
     6     3    31    1
     7     4     5    1
     8     4    32    1
     9     4    33    1
    10     5     6    1
    11     5    34    1
    12     5    35    1
    13     6    14   ar
    14     6     7   ar
    15     7     8   ar
    16     7    36    1
    17     8     9   ar
    18     8    37    1
    19     9    10    1
    20     9    13   ar
    21    10    12    1
    22    10    11    1
    23    10    38    1
    24    11    12    1
    25    11    39    1
    26    11    40    1
    27    12    41    1
    28    12    42    1
    29    13    14   ar
    30    13    43    1
    31    14    44    1
    32    15    16    1
    33    15    45    1
    34    16    17    1
    35    16    29    1
    36    16    18    1
    37    18    19    1
    38    18    46    1
    39    18    47    1
    40    19    20    1
    41    19    48    1
    42    19    49    1
    43    20    21    1
    44    21    22    1
    45    21    23    1
    46    21    29    1
    47    23    28   ar
    48    23    24   ar
    49    24    25   ar
    50    24    50    1
    51    25    26   ar
    52    25    51    1
    53    26    27   ar
    54    26    52    1
    55    27    28   ar
    56    28    53    1
    57    29    54    1
    58    29    55    1
@<TRIPOS>SUBSTRUCTURE
     1 ZINC000892249927        1 TEMP              0 ****  ****    0 ROOT


##########                                Name:    ZINC001327099466
##########                DOCK_Rotatable_Bonds:                   7
##########                         Heavy_Atoms:                  27
##########                    Molecular_Weight:             374.483
##########                DOCK_Rotatable_Bonds:                   7
##########                       Formal_Charge:           0.0199998
##########                     HBond_Acceptors:                   7
##########                        HBond_Donors:                   1
##########                         Heavy_Atoms:                  27
##########                          Grid_Score:          -32.429173
##########                     Grid_vdw_energy:          -32.137234
##########                      Grid_es_energy:           -0.291937
##########           Internal_energy_repulsive:           17.992123

@<TRIPOS>MOLECULE
ZINC001327099466
 57 60 1 0 0
SMALL
USER_CHARGES


@<TRIPOS>ATOM
      1 O1         -7.7478    2.8318   52.0480 O.2     1  ZINC001327099466   -0.4800
      2 C2         -7.3913    1.9440   51.3009 C.2     1  ZINC001327099466    0.5300
      3 N3         -7.7824    0.6744   51.5281 N.am    1  ZINC001327099466   -0.6000
      4 C4         -8.5945    0.3788   52.6285 C.2     1  ZINC001327099466    0.2900
      5 N5         -9.8017   -0.1347   52.5803 N.2     1  ZINC001327099466   -0.3100
      6 N6        -10.2690   -0.2757   53.8933 N.pl3   1  ZINC001327099466   -0.3500
      7 C7        -11.5736   -0.8117   54.2894 C.3     1  ZINC001327099466    0.1700
      8 C8        -11.4527   -1.4901   55.6555 C.3     1  ZINC001327099466   -0.1300
      9 C9        -12.8152   -2.0498   56.0693 C.3     1  ZINC001327099466   -0.1200
     10 C10       -13.8308   -0.9087   56.1546 C.3     1  ZINC001327099466   -0.1300
     11 C11       -13.9516   -0.2303   54.7886 C.3     1  ZINC001327099466   -0.1200
     12 C12       -12.5891    0.3295   54.3748 C.3     1  ZINC001327099466   -0.1300
     13 C13        -9.3069    0.1681   54.7296 C.2     1  ZINC001327099466    0.0700
     14 C14        -8.2585    0.5740   53.9783 C.2     1  ZINC001327099466   -0.2700
     15 C15        -6.5245    2.2595   50.1264 C.2     1  ZINC001327099466    0.5100
     16 O16        -7.0206    2.6782   49.1010 O.2     1  ZINC001327099466   -0.5100
     17 N17        -5.1911    2.0791   50.2051 N.am    1  ZINC001327099466   -0.5700
     18 C18        -4.5759    1.5727   51.4396 C.3     1  ZINC001327099466    0.0400
     19 C19        -3.4678    2.5388   51.8705 C.3     1  ZINC001327099466   -0.1300
     20 C20        -2.4862    2.7320   50.7123 C.3     1  ZINC001327099466   -0.1200
     21 C21        -3.2200    3.3415   49.5157 C.3     1  ZINC001327099466    0.0800
     22 H22        -3.6615    4.2947   49.8067 H       1  ZINC001327099466    0.0700
     23 O23        -2.2962    3.5507   48.4457 O.3     1  ZINC001327099466   -0.3500
     24 C24        -1.8533    2.3466   47.8163 C.3     1  ZINC001327099466    0.0600
     25 C25        -2.4393    2.1350   46.4103 C.3     1  ZINC001327099466   -0.1600
     26 C26        -1.2318    2.9223   45.8744 C.3     1  ZINC001327099466   -0.1400
     27 C27        -0.4790    2.4753   47.1386 C.3     1  ZINC001327099466   -0.1400
     28 C28        -4.3259    2.3793   49.0562 C.3     1  ZINC001327099466    0.0900
     29 H29        -7.5008   -0.0345   50.9288 H       1  ZINC001327099466    0.4300
     30 H30       -11.9068   -1.5401   53.5503 H       1  ZINC001327099466    0.1000
     31 H31       -10.7292   -2.3031   55.5947 H       1  ZINC001327099466    0.0700
     32 H32       -11.1195   -0.7616   56.3947 H       1  ZINC001327099466    0.0700
     33 H33       -13.1484   -2.7782   55.3301 H       1  ZINC001327099466    0.0700
     34 H34       -12.7291   -2.5331   57.0425 H       1  ZINC001327099466    0.0700
     35 H35       -14.8014   -1.3073   56.4493 H       1  ZINC001327099466    0.0700
     36 H36       -13.4975   -0.1802   56.8938 H       1  ZINC001327099466    0.0700
     37 H37       -14.2849   -0.9587   54.0493 H       1  ZINC001327099466    0.0700
     38 H38       -14.6752    0.5828   54.8493 H       1  ZINC001327099466    0.0700
     39 H39       -12.2559    1.0579   55.1140 H       1  ZINC001327099466    0.0700
     40 H40       -12.6752    0.8128   53.4016 H       1  ZINC001327099466    0.0700
     41 H41        -9.3630    0.1911   55.8080 H       1  ZINC001327099466    0.1800
     42 H42        -7.3298    0.9814   54.3499 H       1  ZINC001327099466    0.1700
     43 H43        -5.3299    1.5084   52.2240 H       1  ZINC001327099466    0.1600
     44 H44        -4.1500    0.5861   51.2575 H       1  ZINC001327099466    0.0700
     45 H45        -3.9069    3.4995   52.1393 H       1  ZINC001327099466    0.0700
     46 H46        -2.9396    2.1264   52.7301 H       1  ZINC001327099466    0.0900
     47 H47        -1.6832    3.3998   51.0245 H       1  ZINC001327099466    0.0800
     48 H48        -2.0659    1.7674   50.4277 H       1  ZINC001327099466    0.0800
     49 H49        -1.9411    1.4738   48.4633 H       1  ZINC001327099466    0.0700
     50 H50        -2.4543    1.0914   46.0962 H       1  ZINC001327099466    0.0900
     51 H51        -3.3931    2.6389   46.2544 H       1  ZINC001327099466    0.0700
     52 H52        -0.8184    2.5134   44.9525 H       1  ZINC001327099466    0.0700
     53 H53        -1.3997    3.9981   45.8236 H       1  ZINC001327099466    0.0800
     54 H54         0.1497    3.2540   47.5706 H       1  ZINC001327099466    0.0800
     55 H55         0.0418    1.5248   47.0235 H       1  ZINC001327099466    0.0900
     56 H56        -3.8772    1.4600   48.6799 H       1  ZINC001327099466    0.0900
     57 H57        -4.9156    2.8493   48.2692 H       1  ZINC001327099466    0.1000
@<TRIPOS>BOND
     1     1     2    2
     2     2     3   am
     3     2    15    1
     4     3     4    1
     5     3    29    1
     6     4    14    1
     7     4     5    2
     8     5     6    1
     9     6     7    1
    10     6    13    1
    11     7    12    1
    12     7     8    1
    13     7    30    1
    14     8     9    1
    15     8    31    1
    16     8    32    1
    17     9    10    1
    18     9    33    1
    19     9    34    1
    20    10    11    1
    21    10    35    1
    22    10    36    1
    23    11    12    1
    24    11    37    1
    25    11    38    1
    26    12    39    1
    27    12    40    1
    28    13    14    2
    29    13    41    1
    30    14    42    1
    31    15    16    2
    32    15    17   am
    33    17    28    1
    34    17    18    1
    35    18    19    1
    36    18    43    1
    37    18    44    1
    38    19    20    1
    39    19    45    1
    40    19    46    1
    41    20    21    1
    42    20    47    1
    43    20    48    1
    44    21    22    1
    45    21    23    1
    46    21    28    1
    47    23    24    1
    48    24    27    1
    49    24    25    1
    50    24    49    1
    51    25    26    1
    52    25    50    1
    53    25    51    1
    54    26    27    1
    55    26    52    1
    56    26    53    1
    57    27    54    1
    58    27    55    1
    59    28    56    1
    60    28    57    1
@<TRIPOS>SUBSTRUCTURE
     1 ZINC001327099466        1 TEMP              0 ****  ****    0 ROOT


##########                                Name:    ZINC000537799672
##########                DOCK_Rotatable_Bonds:                   9
##########                         Heavy_Atoms:                  29
##########                    Molecular_Weight:             401.478
##########                DOCK_Rotatable_Bonds:                   9
##########                       Formal_Charge:        -4.47035e-07
##########                     HBond_Acceptors:                   6
##########                        HBond_Donors:                   1
##########                         Heavy_Atoms:                  29
##########                          Grid_Score:          -32.428688
##########                     Grid_vdw_energy:          -31.644718
##########                      Grid_es_energy:           -0.783970
##########           Internal_energy_repulsive:           16.426552

@<TRIPOS>MOLECULE
ZINC000537799672
 57 59 1 0 0
SMALL
USER_CHARGES


@<TRIPOS>ATOM
      1 C1        -14.5588   -1.3125   55.4408 C.3     1  ZINC000537799672    0.0300
      2 O2        -14.6643   -1.1745   56.8592 O.3     1  ZINC000537799672   -0.3800
      3 C3        -13.4288   -1.3544   57.5543 C.3     1  ZINC000537799672    0.1200
      4 H4        -12.6208   -0.8970   56.9834 H       1  ZINC000537799672    0.0900
      5 C5        -13.5163   -0.7038   58.9108 C.ar    1  ZINC000537799672   -0.1300
      6 C6        -12.3617   -0.3366   59.5765 C.ar    1  ZINC000537799672   -0.0600
      7 C7        -12.4406    0.2600   60.8205 C.ar    1  ZINC000537799672   -0.1500
      8 C8        -13.6768    0.4903   61.4001 C.ar    1  ZINC000537799672    0.1000
      9 F9        -13.7552    1.0739   62.6160 F       1  ZINC000537799672   -0.1400
     10 C10       -14.8326    0.1225   60.7323 C.ar    1  ZINC000537799672   -0.1500
     11 C11       -14.7514   -0.4696   59.4862 C.ar    1  ZINC000537799672   -0.0800
     12 C12       -13.1513   -2.8495   57.7228 C.3     1  ZINC000537799672    0.1600
     13 H13       -13.2975   -3.3561   56.7688 H       1  ZINC000537799672    0.1000
     14 C14       -14.1110   -3.4324   58.7621 C.3     1  ZINC000537799672   -0.1600
     15 N15       -11.7700   -3.0423   58.1715 N.am    1  ZINC000537799672   -0.7100
     16 C16       -10.7989   -3.2973   57.2724 C.2     1  ZINC000537799672    0.5600
     17 O17       -11.0688   -3.3660   56.0893 O.2     1  ZINC000537799672   -0.5400
     18 C18        -9.4052   -3.4935   57.7253 C.ar    1  ZINC000537799672   -0.1400
     19 C19        -8.9726   -4.7556   58.1348 C.ar    1  ZINC000537799672   -0.0800
     20 C20        -7.6705   -4.9321   58.5559 C.ar    1  ZINC000537799672   -0.1300
     21 C21        -6.7947   -3.8613   58.5731 C.ar    1  ZINC000537799672   -0.0900
     22 C22        -7.2175   -2.6073   58.1687 C.ar    1  ZINC000537799672   -0.1100
     23 C23        -8.5149   -2.4186   57.7397 C.ar    1  ZINC000537799672   -0.0300
     24 C24        -8.9734   -1.0522   57.2992 C.3     1  ZINC000537799672    0.1100
     25 O25        -7.9110   -0.3937   56.6064 O.3     1  ZINC000537799672   -0.3800
     26 C26        -7.8486    1.0144   56.8419 C.3     1  ZINC000537799672    0.0900
     27 C27        -6.8229    1.3051   57.9418 C.3     1  ZINC000537799672   -0.1800
     28 C28        -6.7055    2.8195   58.1320 C.3     1  ZINC000537799672    0.0600
     29 O29        -6.3343    3.4267   56.8928 O.3     1  ZINC000537799672   -0.3800
     30 C30        -7.2797    3.2283   55.8396 C.3     1  ZINC000537799672    0.0600
     31 C31        -7.4201    1.7302   55.5573 C.3     1  ZINC000537799672   -0.1500
     32 H32       -14.1241   -2.2830   55.2016 H       1  ZINC000537799672    0.0500
     33 H33       -15.5500   -1.2381   54.9937 H       1  ZINC000537799672    0.0900
     34 H34       -13.9214   -0.5216   55.0453 H       1  ZINC000537799672    0.0400
     35 H35       -11.3975   -0.5164   59.1242 H       1  ZINC000537799672    0.1300
     36 H36       -11.5384    0.5462   61.3406 H       1  ZINC000537799672    0.1400
     37 H37       -15.7974    0.3014   61.1836 H       1  ZINC000537799672    0.1400
     38 H38       -15.6528   -0.7563   58.9649 H       1  ZINC000537799672    0.1300
     39 H39       -15.1381   -3.2063   58.4754 H       1  ZINC000537799672    0.0700
     40 H40       -13.9778   -4.5129   58.8141 H       1  ZINC000537799672    0.0600
     41 H41       -13.9010   -2.9931   59.7373 H       1  ZINC000537799672    0.0700
     42 H42       -11.5544   -2.9863   59.1155 H       1  ZINC000537799672    0.4000
     43 H43        -9.6555   -5.5922   58.1225 H       1  ZINC000537799672    0.1300
     44 H44        -7.3344   -5.9083   58.8730 H       1  ZINC000537799672    0.1300
     45 H45        -5.7767   -4.0048   58.9038 H       1  ZINC000537799672    0.1300
     46 H46        -6.5290   -1.7754   58.1849 H       1  ZINC000537799672    0.1400
     47 H47        -9.8321   -1.1536   56.6356 H       1  ZINC000537799672    0.0800
     48 H48        -9.2566   -0.4650   58.1727 H       1  ZINC000537799672    0.0800
     49 H49        -8.8293    1.3762   57.1512 H       1  ZINC000537799672    0.0600
     50 H50        -7.1488    0.8449   58.8746 H       1  ZINC000537799672    0.0800
     51 H51        -5.8539    0.8981   57.6528 H       1  ZINC000537799672    0.0800
     52 H52        -7.6647    3.2201   58.4601 H       1  ZINC000537799672    0.0500
     53 H53        -5.9458    3.0337   58.8837 H       1  ZINC000537799672    0.1000
     54 H54        -8.2465    3.6341   56.1377 H       1  ZINC000537799672    0.0500
     55 H55        -6.9336    3.7369   54.9398 H       1  ZINC000537799672    0.1000
     56 H56        -6.4631    1.3319   55.2203 H       1  ZINC000537799672    0.0800
     57 H57        -8.1731    1.5741   54.7848 H       1  ZINC000537799672    0.0800
@<TRIPOS>BOND
     1     1     2    1
     2     1    32    1
     3     1    33    1
     4     1    34    1
     5     2     3    1
     6     3     4    1
     7     3     5    1
     8     3    12    1
     9     5    11   ar
    10     5     6   ar
    11     6     7   ar
    12     6    35    1
    13     7     8   ar
    14     7    36    1
    15     8     9    1
    16     8    10   ar
    17    10    11   ar
    18    10    37    1
    19    11    38    1
    20    12    13    1
    21    12    14    1
    22    12    15    1
    23    14    39    1
    24    14    40    1
    25    14    41    1
    26    15    16   am
    27    15    42    1
    28    16    17    2
    29    16    18    1
    30    18    23   ar
    31    18    19   ar
    32    19    20   ar
    33    19    43    1
    34    20    21   ar
    35    20    44    1
    36    21    22   ar
    37    21    45    1
    38    22    23   ar
    39    22    46    1
    40    23    24    1
    41    24    25    1
    42    24    47    1
    43    24    48    1
    44    25    26    1
    45    26    31    1
    46    26    27    1
    47    26    49    1
    48    27    28    1
    49    27    50    1
    50    27    51    1
    51    28    29    1
    52    28    52    1
    53    28    53    1
    54    29    30    1
    55    30    31    1
    56    30    54    1
    57    30    55    1
    58    31    56    1
    59    31    57    1
@<TRIPOS>SUBSTRUCTURE
     1 ZINC000537799672        1 TEMP              0 ****  ****    0 ROOT


##########                                Name:    ZINC000600609084
##########                DOCK_Rotatable_Bonds:                   8
##########                         Heavy_Atoms:                  30
##########                    Molecular_Weight:             422.548
##########                DOCK_Rotatable_Bonds:                   8
##########                       Formal_Charge:           0.0100005
##########                     HBond_Acceptors:                   6
##########                        HBond_Donors:                   2
##########                         Heavy_Atoms:                  30
##########                          Grid_Score:          -32.400177
##########                     Grid_vdw_energy:          -31.154125
##########                      Grid_es_energy:           -1.246051
##########           Internal_energy_repulsive:           18.051155

@<TRIPOS>MOLECULE
ZINC000600609084
 56 59 1 0 0
SMALL
USER_CHARGES


@<TRIPOS>ATOM
      1 O1         -4.3383    4.4052   50.4996 O.2     1  ZINC000600609084   -0.5300
      2 C2         -4.2294    3.2094   50.3290 C.2     1  ZINC000600609084    0.5200
      3 C3         -5.4599    2.3605   50.1383 C.3     1  ZINC000600609084   -0.1500
      4 C4         -5.8378    1.7040   51.4675 C.3     1  ZINC000600609084    0.1300
      5 N5         -7.1207    1.0117   51.3230 N.am    1  ZINC000600609084   -1.1200
      6 S6         -8.4686    1.5977   52.0861 S.o2    1  ZINC000600609084    2.7000
      7 O7         -8.5883    2.9598   51.6993 O.2     1  ZINC000600609084   -0.9600
      8 O8         -9.4959    0.6379   51.8793 O.2     1  ZINC000600609084   -0.9500
      9 C9         -8.1299    1.5993   53.8152 C.ar    1  ZINC000600609084   -0.6700
     10 C10        -7.5679    2.7304   54.4034 C.ar    1  ZINC000600609084   -0.0400
     11 C11        -7.2938    2.7645   55.7363 C.ar    1  ZINC000600609084   -0.1200
     12 C12        -7.5809    1.6440   56.5339 C.ar    1  ZINC000600609084   -0.0100
     13 C13        -7.3127    1.6418   57.9135 C.ar    1  ZINC000600609084   -0.1200
     14 C14        -7.6045    0.5383   58.6545 C.ar    1  ZINC000600609084   -0.0900
     15 C15        -8.1667   -0.5933   58.0661 C.ar    1  ZINC000600609084   -0.1200
     16 C16        -8.4401   -0.6276   56.7334 C.ar    1  ZINC000600609084   -0.0900
     17 C17        -8.1527    0.4932   55.9355 C.ar    1  ZINC000600609084   -0.0800
     18 C18        -8.4265    0.4974   54.5574 C.ar    1  ZINC000600609084    0.0200
     19 N19        -3.0078    2.6406   50.3044 N.am    1  ZINC000600609084   -0.7200
     20 C20        -1.8117    3.4659   50.4899 C.3     1  ZINC000600609084    0.1400
     21 H21        -2.0011    4.4811   50.1413 H       1  ZINC000600609084    0.1000
     22 C22        -1.4096    3.4850   51.9750 C.3     1  ZINC000600609084   -0.1300
     23 C23         0.0092    2.8847   52.0552 C.3     1  ZINC000600609084   -0.1300
     24 C24         0.1245    2.0109   50.7816 C.3     1  ZINC000600609084   -0.1200
     25 C25        -0.6236    2.8553   49.7184 C.3     1  ZINC000600609084   -0.0700
     26 H26         0.0245    3.6412   49.3304 H       1  ZINC000600609084    0.0900
     27 C27        -1.1143    1.9766   48.5967 C.ar    1  ZINC000600609084   -0.0600
     28 C28        -0.6581    0.6763   48.4872 C.ar    1  ZINC000600609084   -0.1100
     29 C29        -1.1082   -0.1297   47.4583 C.ar    1  ZINC000600609084   -0.1200
     30 C30        -2.0149    0.3645   46.5392 C.ar    1  ZINC000600609084   -0.1200
     31 C31        -2.4717    1.6645   46.6493 C.ar    1  ZINC000600609084   -0.1200
     32 C32        -2.0249    2.4691   47.6806 C.ar    1  ZINC000600609084   -0.1100
     33 H33        -6.2835    2.9865   49.7950 H       1  ZINC000600609084    0.1000
     34 H34        -5.2569    1.5881   49.3964 H       1  ZINC000600609084    0.1000
     35 H35        -5.0675    0.9865   51.7505 H       1  ZINC000600609084    0.0900
     36 H36        -5.9227    2.4690   52.2394 H       1  ZINC000600609084    0.0800
     37 H37        -7.1807    0.2098   50.7804 H       1  ZINC000600609084    0.4200
     38 H38        -7.3458    3.5929   53.7925 H       1  ZINC000600609084    0.1400
     39 H39        -6.8577    3.6481   56.1785 H       1  ZINC000600609084    0.1400
     40 H40        -6.8768    2.5113   58.3832 H       1  ZINC000600609084    0.1300
     41 H41        -7.3970    0.5391   59.7144 H       1  ZINC000600609084    0.1300
     42 H42        -8.3882   -1.4560   58.6769 H       1  ZINC000600609084    0.1300
     43 H43        -8.8755   -1.5115   56.2911 H       1  ZINC000600609084    0.1300
     44 H44        -8.8664   -0.3705   54.0888 H       1  ZINC000600609084    0.1500
     45 H45        -2.9206    1.6848   50.1639 H       1  ZINC000600609084    0.4000
     46 H46        -1.4031    4.5095   52.3469 H       1  ZINC000600609084    0.0800
     47 H47        -2.1044    2.8803   52.5578 H       1  ZINC000600609084    0.0700
     48 H48         0.7592    3.6755   52.0444 H       1  ZINC000600609084    0.0700
     49 H49         0.1136    2.2707   52.9498 H       1  ZINC000600609084    0.0700
     50 H50         1.1686    1.8734   50.5006 H       1  ZINC000600609084    0.0700
     51 H51        -0.3674    1.0492   50.9271 H       1  ZINC000600609084    0.0700
     52 H52         0.0501    0.2902   49.2052 H       1  ZINC000600609084    0.1200
     53 H53        -0.7513   -1.1453   47.3723 H       1  ZINC000600609084    0.1200
     54 H54        -2.3659   -0.2650   45.7349 H       1  ZINC000600609084    0.1200
     55 H55        -3.1797    2.0507   45.9309 H       1  ZINC000600609084    0.1200
     56 H56        -2.3818    3.4848   47.7666 H       1  ZINC000600609084    0.1200
@<TRIPOS>BOND
     1     1     2    2
     2     2     3    1
     3     2    19   am
     4     3     4    1
     5     3    33    1
     6     3    34    1
     7     4     5    1
     8     4    35    1
     9     4    36    1
    10     5     6   am
    11     5    37    1
    12     6     7    2
    13     6     8    2
    14     6     9    1
    15     9    18   ar
    16     9    10   ar
    17    10    11   ar
    18    10    38    1
    19    11    12   ar
    20    11    39    1
    21    12    17   ar
    22    12    13   ar
    23    13    14   ar
    24    13    40    1
    25    14    15   ar
    26    14    41    1
    27    15    16   ar
    28    15    42    1
    29    16    17   ar
    30    16    43    1
    31    17    18   ar
    32    18    44    1
    33    19    20    1
    34    19    45    1
    35    20    21    1
    36    20    25    1
    37    20    22    1
    38    22    23    1
    39    22    46    1
    40    22    47    1
    41    23    24    1
    42    23    48    1
    43    23    49    1
    44    24    25    1
    45    24    50    1
    46    24    51    1
    47    25    26    1
    48    25    27    1
    49    27    32   ar
    50    27    28   ar
    51    28    29   ar
    52    28    52    1
    53    29    30   ar
    54    29    53    1
    55    30    31   ar
    56    30    54    1
    57    31    32   ar
    58    31    55    1
    59    32    56    1
@<TRIPOS>SUBSTRUCTURE
     1 ZINC000600609084        1 TEMP              0 ****  ****    0 ROOT


##########                                Name:    ZINC000409064708
##########                DOCK_Rotatable_Bonds:                   8
##########                         Heavy_Atoms:                  29
##########                    Molecular_Weight:             415.442
##########                DOCK_Rotatable_Bonds:                   8
##########                       Formal_Charge:                0.03
##########                     HBond_Acceptors:                   8
##########                        HBond_Donors:                   0
##########                         Heavy_Atoms:                  29
##########                          Grid_Score:          -32.354382
##########                     Grid_vdw_energy:          -30.643194
##########                      Grid_es_energy:           -1.711189
##########           Internal_energy_repulsive:           20.771563

@<TRIPOS>MOLECULE
ZINC000409064708
 47 49 1 0 0
SMALL
USER_CHARGES


@<TRIPOS>ATOM
      1 C1         -1.1128   -1.4673   47.8929 C.3     1  ZINC000409064708    0.0400
      2 O2         -1.6679   -0.7904   46.7344 O.3     1  ZINC000409064708   -0.3500
      3 C3         -1.2857    0.4799   46.5297 C.2     1  ZINC000409064708    0.4600
      4 O4         -1.2097    0.9142   45.4048 O.2     1  ZINC000409064708   -0.4900
      5 C5         -0.9513    1.3645   47.7031 C.3     1  ZINC000409064708    0.1400
      6 H6         -0.2554    0.8457   48.3625 H       1  ZINC000409064708    0.1500
      7 C7         -0.3088    2.6584   47.1997 C.3     1  ZINC000409064708   -0.1600
      8 N8         -2.1771    1.6823   48.4399 N.am    1  ZINC000409064708   -0.5600
      9 C9         -3.2441    2.1679   47.7950 C.2     1  ZINC000409064708    0.5400
     10 O10        -3.3299    2.3920   46.6026 O.2     1  ZINC000409064708   -0.4200
     11 S11        -4.5089    2.4214   49.0104 S.3     1  ZINC000409064708   -0.0100
     12 C12        -3.5186    1.8473   50.3669 C.2     1  ZINC000409064708   -0.2400
     13 C13        -3.8666    1.7581   51.6756 C.2     1  ZINC000409064708    0.0900
     14 C14        -5.2094    2.1662   52.1076 C.ar    1  ZINC000409064708   -0.1400
     15 C15        -5.3625    3.1709   53.0710 C.ar    1  ZINC000409064708    0.0000
     16 C16        -6.6237    3.5497   53.4725 C.ar    1  ZINC000409064708   -0.1600
     17 C17        -7.7440    2.9362   52.9236 C.ar    1  ZINC000409064708    0.1600
     18 O18        -8.9855    3.3137   53.3231 O.3     1  ZINC000409064708   -0.3000
     19 C19        -9.8481    2.2871   53.8173 C.3     1  ZINC000409064708    0.1000
     20 C20        -9.2584    1.6962   55.0719 C.ar    1  ZINC000409064708   -0.0700
     21 C21        -8.6227    2.5133   55.9877 C.ar    1  ZINC000409064708   -0.1000
     22 C22        -8.0811    1.9727   57.1393 C.ar    1  ZINC000409064708   -0.0900
     23 C23        -8.1751    0.6145   57.3760 C.ar    1  ZINC000409064708   -0.1400
     24 C24        -8.8123   -0.2051   56.4594 C.ar    1  ZINC000409064708    0.1000
     25 F25        -8.9046   -1.5331   56.6897 F       1  ZINC000409064708   -0.1400
     26 C26        -9.3586    0.3382   55.3093 C.ar    1  ZINC000409064708   -0.1300
     27 C27        -7.5980    1.9383   51.9670 C.ar    1  ZINC000409064708   -0.2200
     28 C28        -6.3417    1.5562   51.5537 C.ar    1  ZINC000409064708   -0.0400
     29 C29        -2.2388    1.4863   49.7464 C.2     1  ZINC000409064708    0.5600
     30 O30        -1.3023    1.0461   50.3870 O.2     1  ZINC000409064708   -0.4600
     31 H31        -0.0264   -1.4982   47.8096 H       1  ZINC000409064708    0.0700
     32 H32        -1.3926   -0.9278   48.7977 H       1  ZINC000409064708    0.0700
     33 H33        -1.5025   -2.4841   47.9409 H       1  ZINC000409064708    0.1100
     34 H34         0.6032    2.4220   46.6516 H       1  ZINC000409064708    0.1000
     35 H35        -1.0048    3.1771   46.5403 H       1  ZINC000409064708    0.0800
     36 H36        -0.0671    3.2982   48.0483 H       1  ZINC000409064708    0.0800
     37 H37        -3.1560    1.3869   52.3993 H       1  ZINC000409064708    0.1600
     38 H38        -4.4928    3.6476   53.4986 H       1  ZINC000409064708    0.1300
     39 H39        -6.7430    4.3244   54.2153 H       1  ZINC000409064708    0.1400
     40 H40       -10.8269    2.7113   54.0406 H       1  ZINC000409064708    0.0800
     41 H41        -9.9536    1.5071   53.0632 H       1  ZINC000409064708    0.0800
     42 H42        -8.5484    3.5749   55.8034 H       1  ZINC000409064708    0.1300
     43 H43        -7.5843    2.6119   57.8540 H       1  ZINC000409064708    0.1400
     44 H44        -7.7514    0.1922   58.2752 H       1  ZINC000409064708    0.1400
     45 H45        -9.8561   -0.2999   54.5939 H       1  ZINC000409064708    0.1400
     46 H46        -8.4717    1.4650   51.5442 H       1  ZINC000409064708    0.1300
     47 H47        -6.2292    0.7808   50.8103 H       1  ZINC000409064708    0.1300
@<TRIPOS>BOND
     1     1     2    1
     2     1    31    1
     3     1    32    1
     4     1    33    1
     5     2     3    1
     6     3     4    2
     7     3     5    1
     8     5     6    1
     9     5     7    1
    10     5     8    1
    11     7    34    1
    12     7    35    1
    13     7    36    1
    14     8    29   am
    15     8     9   am
    16     9    10    2
    17     9    11    1
    18    11    12    1
    19    12    13    2
    20    12    29    1
    21    13    14    1
    22    13    37    1
    23    14    28   ar
    24    14    15   ar
    25    15    16   ar
    26    15    38    1
    27    16    17   ar
    28    16    39    1
    29    17    18    1
    30    17    27   ar
    31    18    19    1
    32    19    20    1
    33    19    40    1
    34    19    41    1
    35    20    26   ar
    36    20    21   ar
    37    21    22   ar
    38    21    42    1
    39    22    23   ar
    40    22    43    1
    41    23    24   ar
    42    23    44    1
    43    24    25    1
    44    24    26   ar
    45    26    45    1
    46    27    28   ar
    47    27    46    1
    48    28    47    1
    49    29    30    2
@<TRIPOS>SUBSTRUCTURE
     1 ZINC000409064708        1 TEMP              0 ****  ****    0 ROOT


##########                                Name:    ZINC000980108339
##########                DOCK_Rotatable_Bonds:                   9
##########                         Heavy_Atoms:                  25
##########                    Molecular_Weight:             348.445
##########                DOCK_Rotatable_Bonds:                   9
##########                       Formal_Charge:          -0.0100001
##########                     HBond_Acceptors:                   7
##########                        HBond_Donors:                   3
##########                         Heavy_Atoms:                  25
##########                          Grid_Score:          -32.309448
##########                     Grid_vdw_energy:          -31.647791
##########                      Grid_es_energy:           -0.661657
##########           Internal_energy_repulsive:            6.386328

@<TRIPOS>MOLECULE
ZINC000980108339
 53 56 1 0 0
SMALL
USER_CHARGES


@<TRIPOS>ATOM
      1 C1          0.4723    1.7359   44.7894 C.3     1  ZINC000980108339    0.1200
      2 N2         -0.2963    1.0520   45.8324 N.am    1  ZINC000980108339   -0.6400
      3 C3          0.2284    0.6320   47.1404 C.3     1  ZINC000980108339    0.1100
      4 C4         -0.9824   -0.0266   47.8296 C.3     1  ZINC000980108339    0.1000
      5 H5         -0.7758   -1.0747   48.0466 H       1  ZINC000980108339    0.1200
      6 C6         -1.3387    0.7133   49.0933 C.2     1  ZINC000980108339    0.5000
      7 O7         -0.4615    1.1423   49.8126 O.2     1  ZINC000980108339   -0.5200
      8 N8         -2.6321    0.8984   49.4238 N.am    1  ZINC000980108339   -0.7200
      9 C9         -2.9785    1.6162   50.6530 C.3     1  ZINC000980108339    0.1300
     10 C10        -4.4227    1.2939   51.0422 C.3     1  ZINC000980108339   -0.1200
     11 H11        -4.5960    0.2265   51.1789 H       1  ZINC000980108339    0.1000
     12 C12        -4.9568    2.1575   52.1970 C.3     1  ZINC000980108339   -0.1400
     13 C13        -6.2872    2.2230   51.4283 C.3     1  ZINC000980108339    0.1200
     14 H14        -6.7636    3.2027   51.4627 H       1  ZINC000980108339    0.1100
     15 N15        -7.2077    1.1310   51.7545 N.am    1  ZINC000980108339   -0.7200
     16 C16        -7.8704    1.1362   52.9280 C.2     1  ZINC000980108339    0.5200
     17 O17        -7.7059    2.0457   53.7134 O.2     1  ZINC000980108339   -0.5300
     18 C18        -8.8161    0.0120   53.2645 C.3     1  ZINC000980108339   -0.1100
     19 C19       -10.2210    0.5761   53.4851 C.3     1  ZINC000980108339   -0.1300
     20 H20       -10.2637    1.6002   53.8559 H       1  ZINC000980108339    0.1200
     21 C21       -11.3047   -0.3933   53.9614 C.3     1  ZINC000980108339   -0.1700
     22 C22       -11.3218    0.1271   52.5219 C.3     1  ZINC000980108339   -0.1200
     23 H23       -11.0452   -0.5704   51.7313 H       1  ZINC000980108339    0.1000
     24 C24       -12.3988    1.1493   52.1531 C.3     1  ZINC000980108339   -0.1300
     25 C25       -13.2839    0.8380   50.9445 C.3     1  ZINC000980108339   -0.1800
     26 C26       -13.8592    0.7424   52.3591 C.3     1  ZINC000980108339   -0.1800
     27 C27        -5.4693    1.9781   50.1471 C.3     1  ZINC000980108339   -0.1400
     28 N28        -2.0606    0.0922   46.8369 N.am    1  ZINC000980108339   -0.7200
     29 C29        -1.5900    0.7151   45.7484 C.2     1  ZINC000980108339    0.7000
     30 O30        -2.2729    0.9456   44.7692 O.2     1  ZINC000980108339   -0.5800
     31 H31        -0.1715    1.9290   43.9313 H       1  ZINC000980108339    0.0900
     32 H32         0.8523    2.6806   45.1784 H       1  ZINC000980108339    0.0600
     33 H33         1.3080    1.1069   44.4824 H       1  ZINC000980108339    0.0600
     34 H34         1.0362   -0.0890   47.0150 H       1  ZINC000980108339    0.1000
     35 H35         0.5702    1.4957   47.7107 H       1  ZINC000980108339    0.0900
     36 H36        -3.3337    0.5564   48.8478 H       1  ZINC000980108339    0.4000
     37 H37        -2.3085    1.3073   51.4553 H       1  ZINC000980108339    0.0700
     38 H38        -2.8775    2.6889   50.4881 H       1  ZINC000980108339    0.0700
     39 H39        -5.0262    1.6244   53.1452 H       1  ZINC000980108339    0.0800
     40 H40        -4.4573    3.1221   52.2881 H       1  ZINC000980108339    0.1000
     41 H41        -7.3403    0.4042   51.1259 H       1  ZINC000980108339    0.4000
     42 H42        -8.8368   -0.7036   52.4425 H       1  ZINC000980108339    0.1000
     43 H43        -8.4783   -0.4874   54.1725 H       1  ZINC000980108339    0.1000
     44 H44       -11.0167   -1.4329   54.1176 H       1  ZINC000980108339    0.0900
     45 H45       -12.0604   -0.0068   54.6453 H       1  ZINC000980108339    0.1000
     46 H46       -12.1372    2.1925   52.3304 H       1  ZINC000980108339    0.1000
     47 H47       -13.6048    1.6766   50.3264 H       1  ZINC000980108339    0.0900
     48 H48       -13.0990   -0.0950   50.4124 H       1  ZINC000980108339    0.0900
     49 H49       -14.0527   -0.2536   52.7574 H       1  ZINC000980108339    0.0900
     50 H50       -14.5585    1.5179   52.6715 H       1  ZINC000980108339    0.0900
     51 H51        -5.1095    2.8935   49.6773 H       1  ZINC000980108339    0.1000
     52 H52        -5.9532    1.3015   49.4429 H       1  ZINC000980108339    0.0800
     53 H53        -2.9694   -0.2262   46.9533 H       1  ZINC000980108339    0.4400
@<TRIPOS>BOND
     1     1     2    1
     2     1    31    1
     3     1    32    1
     4     1    33    1
     5     2    29   am
     6     2     3    1
     7     3     4    1
     8     3    34    1
     9     3    35    1
    10     4     5    1
    11     4     6    1
    12     4    28    1
    13     6     7    2
    14     6     8   am
    15     8     9    1
    16     8    36    1
    17     9    10    1
    18     9    37    1
    19     9    38    1
    20    10    11    1
    21    10    27    1
    22    10    12    1
    23    12    13    1
    24    12    39    1
    25    12    40    1
    26    13    14    1
    27    13    15    1
    28    13    27    1
    29    15    16   am
    30    15    41    1
    31    16    17    2
    32    16    18    1
    33    18    19    1
    34    18    42    1
    35    18    43    1
    36    19    20    1
    37    19    22    1
    38    19    21    1
    39    21    22    1
    40    21    44    1
    41    21    45    1
    42    22    23    1
    43    22    24    1
    44    24    26    1
    45    24    25    1
    46    24    46    1
    47    25    26    1
    48    25    47    1
    49    25    48    1
    50    26    49    1
    51    26    50    1
    52    27    51    1
    53    27    52    1
    54    28    29   am
    55    28    53    1
    56    29    30    2
@<TRIPOS>SUBSTRUCTURE
     1 ZINC000980108339        1 TEMP              0 ****  ****    0 ROOT


##########                                Name:    ZINC000432833246
##########                DOCK_Rotatable_Bonds:                   5
##########                         Heavy_Atoms:                  25
##########                    Molecular_Weight:             400.318
##########                DOCK_Rotatable_Bonds:                   5
##########                       Formal_Charge:        -3.20375e-07
##########                     HBond_Acceptors:                   4
##########                        HBond_Donors:                   1
##########                         Heavy_Atoms:                  25
##########                          Grid_Score:          -32.305695
##########                     Grid_vdw_energy:          -31.571991
##########                      Grid_es_energy:           -0.733705
##########           Internal_energy_repulsive:            8.863936

@<TRIPOS>MOLECULE
ZINC000432833246
 47 51 1 0 0
SMALL
USER_CHARGES


@<TRIPOS>ATOM
      1 O1         -9.5977   -0.4644   51.9063 O.2     1  ZINC000432833246   -0.5200
      2 C2         -9.3279    0.2611   52.8401 C.2     1  ZINC000432833246    0.5200
      3 C3         -9.8965    0.1253   54.2354 C.3     1  ZINC000432833246   -0.1500
      4 C4         -8.9526    0.9784   55.1142 C.3     1  ZINC000432833246   -0.1100
      5 H5         -8.1596    0.3658   55.5433 H       1  ZINC000432833246    0.1000
      6 C6         -9.7335    1.7052   56.2109 C.3     1  ZINC000432833246    0.1300
      7 N7         -9.5812    0.9854   57.4777 N.pl3   1  ZINC000432833246   -0.7200
      8 C8         -9.8783   -0.3673   57.5466 C.ar    1  ZINC000432833246    0.2800
      9 C9         -8.8848   -1.3167   57.8847 C.ar    1  ZINC000432833246   -0.1500
     10 C10        -7.5673   -0.9266   58.1625 C.ar    1  ZINC000432833246   -0.0700
     11 C11        -6.6387   -1.8701   58.4847 C.ar    1  ZINC000432833246   -0.1300
     12 C12        -6.9814   -3.2187   58.5415 C.ar    1  ZINC000432833246   -0.0600
     13 C13        -8.2523   -3.6317   58.2774 C.ar    1  ZINC000432833246   -0.0800
     14 Br14       -8.6901   -5.4694   58.3625 Br      1  ZINC000432833246   -0.0300
     15 C15        -9.2377   -2.6860   57.9418 C.ar    1  ZINC000432833246    0.1900
     16 N16       -10.4936   -3.0637   57.6783 N.ar    1  ZINC000432833246   -0.5000
     17 C17       -11.4240   -2.1924   57.3639 C.ar    1  ZINC000432833246    0.2400
     18 C18       -12.8200   -2.6829   57.0783 C.3     1  ZINC000432833246   -0.1100
     19 C19       -13.5377   -3.4560   58.1866 C.3     1  ZINC000432833246   -0.1700
     20 C20       -13.9698   -2.0282   57.8465 C.3     1  ZINC000432833246   -0.1600
     21 C21       -11.1593   -0.8318   57.2921 C.ar    1  ZINC000432833246   -0.2700
     22 C22        -8.3823    1.9789   54.0846 C.3     1  ZINC000432833246    0.1100
     23 N23        -8.4759    1.2994   52.7871 N.am    1  ZINC000432833246   -0.5900
     24 C24        -7.7418    1.7060   51.5863 C.3     1  ZINC000432833246    0.0800
     25 C25        -6.2157    1.6041   51.6228 C.3     1  ZINC000432833246   -0.1900
     26 C26        -7.0289    0.6115   50.7897 C.3     1  ZINC000432833246   -0.1900
     27 H27       -10.9123    0.5188   54.2734 H       1  ZINC000432833246    0.1100
     28 H28        -9.8777   -0.9165   54.5552 H       1  ZINC000432833246    0.1000
     29 H29        -9.3480    2.7189   56.3204 H       1  ZINC000432833246    0.0800
     30 H30       -10.7886    1.7449   55.9401 H       1  ZINC000432833246    0.0700
     31 H31        -9.2724    1.4550   58.2683 H       1  ZINC000432833246    0.4000
     32 H32        -7.2897    0.1163   58.1209 H       1  ZINC000432833246    0.1300
     33 H33        -5.6239   -1.5684   58.6985 H       1  ZINC000432833246    0.1400
     34 H34        -6.2279   -3.9484   58.7985 H       1  ZINC000432833246    0.1400
     35 H35       -13.0105   -2.9855   56.0487 H       1  ZINC000432833246    0.1300
     36 H36       -14.2005   -4.2675   57.8861 H       1  ZINC000432833246    0.1000
     37 H37       -13.0001   -3.6097   59.1223 H       1  ZINC000432833246    0.1000
     38 H38       -13.7166   -1.2427   58.5585 H       1  ZINC000432833246    0.0900
     39 H39       -14.9169   -1.9004   57.3224 H       1  ZINC000432833246    0.1000
     40 H40       -11.9457   -0.1392   57.0312 H       1  ZINC000432833246    0.1400
     41 H41        -8.9752    2.8936   54.0793 H       1  ZINC000432833246    0.0800
     42 H42        -7.3412    2.2048   54.3150 H       1  ZINC000432833246    0.0900
     43 H43        -8.1780    2.5330   51.0261 H       1  ZINC000432833246    0.1300
     44 H44        -5.6475    2.3643   51.0868 H       1  ZINC000432833246    0.1000
     45 H45        -5.7578    1.2346   52.5404 H       1  ZINC000432833246    0.1300
     46 H46        -7.1059   -0.4111   51.1590 H       1  ZINC000432833246    0.0900
     47 H47        -6.9957    0.7187   49.7054 H       1  ZINC000432833246    0.1000
@<TRIPOS>BOND
     1     1     2    2
     2     2    23   am
     3     2     3    1
     4     3     4    1
     5     3    27    1
     6     3    28    1
     7     4     5    1
     8     4     6    1
     9     4    22    1
    10     6     7    1
    11     6    29    1
    12     6    30    1
    13     7     8    1
    14     7    31    1
    15     8    21   ar
    16     8     9   ar
    17     9    15   ar
    18     9    10   ar
    19    10    11   ar
    20    10    32    1
    21    11    12   ar
    22    11    33    1
    23    12    13   ar
    24    12    34    1
    25    13    14    1
    26    13    15   ar
    27    15    16   ar
    28    16    17   ar
    29    17    18    1
    30    17    21   ar
    31    18    20    1
    32    18    19    1
    33    18    35    1
    34    19    20    1
    35    19    36    1
    36    19    37    1
    37    20    38    1
    38    20    39    1
    39    21    40    1
    40    22    23    1
    41    22    41    1
    42    22    42    1
    43    23    24    1
    44    24    26    1
    45    24    25    1
    46    24    43    1
    47    25    26    1
    48    25    44    1
    49    25    45    1
    50    26    46    1
    51    26    47    1
@<TRIPOS>SUBSTRUCTURE
     1 ZINC000432833246        1 TEMP              0 ****  ****    0 ROOT


##########                                Name:    ZINC000011972961
##########                DOCK_Rotatable_Bonds:                   6
##########                         Heavy_Atoms:                  28
##########                    Molecular_Weight:             397.501
##########                DOCK_Rotatable_Bonds:                   6
##########                       Formal_Charge:                   0
##########                     HBond_Acceptors:                   8
##########                        HBond_Donors:                   1
##########                         Heavy_Atoms:                  28
##########                          Grid_Score:          -32.264374
##########                     Grid_vdw_energy:          -32.264374
##########                      Grid_es_energy:            0.000000
##########           Internal_energy_repulsive:           21.977922

@<TRIPOS>MOLECULE
ZINC000011972961
 51 54 1 0 0
SMALL
USER_CHARGES


@<TRIPOS>ATOM
      1 C1        -11.9041   -1.1414   60.4041 C.3        l6M      0.0000
      2 C2        -11.2635   -1.9815   59.3295 C.2        l6M      0.0000
      3 C3        -11.9808   -2.7553   58.5050 C.2        l6M      0.0000
      4 C4        -13.4429   -2.8823   58.5398 C.2        l6M      0.0000
      5 O5        -13.9649   -3.7061   59.2674 O.2        l6M      0.0000
      6 N6        -14.2070   -2.0862   57.7660 N.am       l6M      0.0000
      7 C7        -15.6662   -2.2130   57.8007 C.3        l6M      0.0000
      8 C8        -13.5785   -1.0942   56.8900 C.3        l6M      0.0000
      9 H9        -12.5440   -0.9242   57.1883 H          l6M      0.0000
     10 C10       -13.6482   -1.5538   55.4133 C.3        l6M      0.0000
     11 C11       -14.8851   -0.7797   54.8904 C.3        l6M      0.0000
     12 O12       -14.7954    0.4937   55.5650 O.3        l6M      0.0000
     13 C13       -14.3713    0.2269   56.9154 C.3        l6M      0.0000
     14 S14       -10.9319   -3.5965   57.3765 S.3        l6M      0.0000
     15 C15        -9.5004   -2.8521   58.0756 C.ar       l6M      0.0000
     16 N16        -8.2036   -2.9716   57.7690 N.ar       l6M      0.0000
     17 C17        -7.2857   -2.3094   58.4353 C.ar       l6M      0.0000
     18 N18        -7.5877   -1.4987   59.4329 N.ar       l6M      0.0000
     19 C19        -8.8427   -1.3129   59.8127 C.ar       l6M      0.0000
     20 N20        -9.1403   -0.4617   60.8576 N.pl3      l6M      0.0000
     21 C21        -8.0598    0.1395   61.6431 C.3        l6M      0.0000
     22 C22        -8.5509    0.4217   63.0395 C.ar       l6M      0.0000
     23 N23        -7.7256    0.2911   64.0595 N.ar       l6M      0.0000
     24 C24        -8.1112    0.5277   65.2983 C.ar       l6M      0.0000
     25 C25        -7.1279    0.3634   66.4286 C.3        l6M      0.0000
     26 C26        -9.4061    0.9247   65.5720 C.ar       l6M      0.0000
     27 C27       -10.3030    1.0729   64.5248 C.ar       l6M      0.0000
     28 C28        -9.8600    0.8199   63.2358 C.ar       l6M      0.0000
     29 C29        -9.8803   -2.0009   59.1225 C.ar       l6M      0.0000
     30 H30       -11.8006   -0.0863   60.1504 H          l6M      0.0000
     31 H31       -12.9615   -1.3945   60.4813 H          l6M      0.0000
     32 H32       -11.4135   -1.3355   61.3580 H          l6M      0.0000
     33 H33       -16.0327   -1.9231   58.7854 H          l6M      0.0000
     34 H34       -16.1053   -1.5632   57.0437 H          l6M      0.0000
     35 H35       -15.9460   -3.2469   57.5987 H          l6M      0.0000
     36 H36       -12.7486   -1.2609   54.8719 H          l6M      0.0000
     37 H37       -13.8068   -2.6303   55.3480 H          l6M      0.0000
     38 H38       -14.8261   -0.6468   53.8102 H          l6M      0.0000
     39 H39       -15.8051   -1.2956   55.1651 H          l6M      0.0000
     40 H40       -15.2414    0.1244   57.5638 H          l6M      0.0000
     41 H41       -13.7351    1.0375   57.2711 H          l6M      0.0000
     42 H42        -6.2491   -2.4325   58.1583 H          l6M      0.0000
     43 H43       -10.0650   -0.2616   61.0718 H          l6M      0.0000
     44 H44        -7.2158   -0.5489   61.6870 H          l6M      0.0000
     45 H45        -7.7444    1.0714   61.1737 H          l6M      0.0000
     46 H46        -6.6109    1.3074   66.6005 H          l6M      0.0000
     47 H47        -7.6603    0.0708   67.3336 H          l6M      0.0000
     48 H48        -6.4015   -0.4067   66.1692 H          l6M      0.0000
     49 H49        -9.7158    1.1170   66.5887 H          l6M      0.0000
     50 H50       -11.3214    1.3819   64.7087 H          l6M      0.0000
     51 H51       -10.5311    0.9256   62.3963 H          l6M      0.0000
@<TRIPOS>BOND
     1     1     2    1
     2     1    30    1
     3     1    31    1
     4     1    32    1
     5     2    29    1
     6     2     3    2
     7     3     4    1
     8     3    14    1
     9     4     5    2
    10     4     6   am
    11     6     7    1
    12     6     8    1
    13     7    33    1
    14     7    34    1
    15     7    35    1
    16     8     9    1
    17     8    13    1
    18     8    10    1
    19    10    11    1
    20    10    36    1
    21    10    37    1
    22    11    12    1
    23    11    38    1
    24    11    39    1
    25    12    13    1
    26    13    40    1
    27    13    41    1
    28    14    15    1
    29    15    29   ar
    30    15    16   ar
    31    16    17   ar
    32    17    18   ar
    33    17    42    1
    34    18    19   ar
    35    19    20    1
    36    19    29   ar
    37    20    21    1
    38    20    43    1
    39    21    22    1
    40    21    44    1
    41    21    45    1
    42    22    28   ar
    43    22    23   ar
    44    23    24   ar
    45    24    25    1
    46    24    26   ar
    47    25    46    1
    48    25    47    1
    49    25    48    1
    50    26    27   ar
    51    26    49    1
    52    27    28   ar
    53    27    50    1
    54    28    51    1
@<TRIPOS>SUBSTRUCTURE
     1 l6M        1 TEMP              0 ****  ****    0 ROOT


##########                                Name:    ZINC000465392830
##########                DOCK_Rotatable_Bonds:                   8
##########                         Heavy_Atoms:                  29
##########                    Molecular_Weight:             419.588
##########                DOCK_Rotatable_Bonds:                   8
##########                       Formal_Charge:           0.0199996
##########                     HBond_Acceptors:                   7
##########                        HBond_Donors:                   0
##########                         Heavy_Atoms:                  29
##########                          Grid_Score:          -32.250168
##########                     Grid_vdw_energy:          -31.039124
##########                      Grid_es_energy:           -1.211045
##########           Internal_energy_repulsive:           29.467638

@<TRIPOS>MOLECULE
ZINC000465392830
 62 64 1 0 0
SMALL
USER_CHARGES


@<TRIPOS>ATOM
      1 C1        -10.4782    4.3159   49.5186 C.3     1  ZINC000465392830    0.0400
      2 O2         -9.9224    5.0205   50.6601 O.3     1  ZINC000465392830   -0.3600
      3 C3         -8.8604    4.4628   51.2624 C.2     1  ZINC000465392830    0.4600
      4 O4         -8.3871    4.9754   52.2489 O.2     1  ZINC000465392830   -0.4900
      5 C5         -8.2584    3.1973   50.7082 C.3     1  ZINC000465392830    0.1500
      6 H6         -8.9137    2.7789   49.9443 H       1  ZINC000465392830    0.1100
      7 C7         -6.8710    3.4974   50.1027 C.3     1  ZINC000465392830   -0.1100
      8 C8         -6.0401    2.2496   50.5026 C.3     1  ZINC000465392830   -0.0900
      9 H9         -6.2108    1.4274   49.8075 H       1  ZINC000465392830    0.1000
     10 C10        -4.5506    2.5881   50.5917 C.3     1  ZINC000465392830   -0.0800
     11 C11        -3.7508    1.3080   50.8416 C.3     1  ZINC000465392830   -0.1200
     12 C12        -2.2614    1.6465   50.9307 C.3     1  ZINC000465392830   -0.1200
     13 C13        -1.8041    2.2854   49.6179 C.3     1  ZINC000465392830   -0.1200
     14 C14        -2.6040    3.5655   49.3680 C.3     1  ZINC000465392830   -0.1200
     15 C15        -4.0934    3.2270   49.2788 C.3     1  ZINC000465392830   -0.1200
     16 C16        -6.6210    1.9241   51.9012 C.3     1  ZINC000465392830    0.1000
     17 N17        -8.0642    2.2206   51.7899 N.am    1  ZINC000465392830   -0.6100
     18 C18        -9.0370    1.6869   52.5548 C.2     1  ZINC000465392830    0.5400
     19 O19       -10.1931    2.0069   52.3762 O.2     1  ZINC000465392830   -0.5300
     20 C20        -8.6882    0.6924   53.6320 C.3     1  ZINC000465392830   -0.1300
     21 C21        -9.6430    0.8659   54.8149 C.3     1  ZINC000465392830   -0.0600
     22 C22        -9.0294    0.2570   56.0493 C.ar    1  ZINC000465392830   -0.2000
     23 C23        -8.2496    1.0216   56.9032 C.ar    1  ZINC000465392830    0.2000
     24 C24        -8.0025    2.4791   56.6105 C.3     1  ZINC000465392830   -0.1100
     25 N25        -7.7255    0.4566   57.9780 N.ar    1  ZINC000465392830   -0.5000
     26 C26        -7.9389   -0.8247   58.2422 C.ar    1  ZINC000465392830    0.3000
     27 S27        -7.2214   -1.5367   59.6854 S.3     1  ZINC000465392830    0.0000
     28 C28        -6.7201   -3.1460   59.0260 C.3     1  ZINC000465392830   -0.1400
     29 N29        -8.6799   -1.5830   57.4464 N.ar    1  ZINC000465392830   -0.5300
     30 C30        -9.2371   -1.0782   56.3583 C.ar    1  ZINC000465392830    0.2000
     31 C31       -10.0780   -1.9472   55.4590 C.3     1  ZINC000465392830   -0.1100
     32 H32        -9.7175    4.2227   48.7436 H       1  ZINC000465392830    0.0600
     33 H33       -10.8050    3.3232   49.8283 H       1  ZINC000465392830    0.0600
     34 H34       -11.3294    4.8730   49.1271 H       1  ZINC000465392830    0.1000
     35 H35        -6.9348    3.5870   49.0183 H       1  ZINC000465392830    0.1000
     36 H36        -6.4461    4.4004   50.5410 H       1  ZINC000465392830    0.0800
     37 H37        -4.3852    3.2861   51.4124 H       1  ZINC000465392830    0.0800
     38 H38        -4.0765    0.8529   51.7769 H       1  ZINC000465392830    0.0600
     39 H39        -3.9162    0.6100   50.0209 H       1  ZINC000465392830    0.0700
     40 H40        -2.0958    2.3445   51.7515 H       1  ZINC000465392830    0.0600
     41 H41        -1.6915    0.7345   51.1088 H       1  ZINC000465392830    0.0600
     42 H42        -0.7430    2.5266   49.6814 H       1  ZINC000465392830    0.0600
     43 H43        -1.9696    1.5875   48.7972 H       1  ZINC000465392830    0.0600
     44 H44        -2.4385    4.2635   50.1887 H       1  ZINC000465392830    0.0600
     45 H45        -2.2783    4.0207   48.4326 H       1  ZINC000465392830    0.0600
     46 H46        -4.2589    2.5291   48.4580 H       1  ZINC000465392830    0.0700
     47 H47        -4.6632    4.1390   49.1007 H       1  ZINC000465392830    0.0600
     48 H48        -6.4687    0.8716   52.1397 H       1  ZINC000465392830    0.0900
     49 H49        -6.1601    2.5566   52.6599 H       1  ZINC000465392830    0.0800
     50 H50        -8.7803   -0.3191   53.2362 H       1  ZINC000465392830    0.1000
     51 H51        -7.6639    0.8608   53.9641 H       1  ZINC000465392830    0.1000
     52 H52        -9.8224    1.9277   54.9843 H       1  ZINC000465392830    0.0900
     53 H53       -10.5876    0.3683   54.5954 H       1  ZINC000465392830    0.0900
     54 H54        -8.7803    3.0809   57.0804 H       1  ZINC000465392830    0.0900
     55 H55        -7.0294    2.7693   57.0068 H       1  ZINC000465392830    0.0900
     56 H56        -8.0189    2.6411   55.5328 H       1  ZINC000465392830    0.0900
     57 H57        -7.5981   -3.6779   58.6594 H       1  ZINC000465392830    0.0900
     58 H58        -6.0157   -2.9998   58.2072 H       1  ZINC000465392830    0.0900
     59 H59        -6.2447   -3.7296   59.8144 H       1  ZINC000465392830    0.1100
     60 H60       -11.1173   -1.9092   55.7853 H       1  ZINC000465392830    0.0900
     61 H61       -10.0058   -1.5855   54.4333 H       1  ZINC000465392830    0.0900
     62 H62        -9.7191   -2.9752   55.5078 H       1  ZINC000465392830    0.0800
@<TRIPOS>BOND
     1     1     2    1
     2     1    32    1
     3     1    33    1
     4     1    34    1
     5     2     3    1
     6     3     4    2
     7     3     5    1
     8     5     6    1
     9     5    17    1
    10     5     7    1
    11     7     8    1
    12     7    35    1
    13     7    36    1
    14     8     9    1
    15     8    10    1
    16     8    16    1
    17    10    15    1
    18    10    11    1
    19    10    37    1
    20    11    12    1
    21    11    38    1
    22    11    39    1
    23    12    13    1
    24    12    40    1
    25    12    41    1
    26    13    14    1
    27    13    42    1
    28    13    43    1
    29    14    15    1
    30    14    44    1
    31    14    45    1
    32    15    46    1
    33    15    47    1
    34    16    17    1
    35    16    48    1
    36    16    49    1
    37    17    18   am
    38    18    19    2
    39    18    20    1
    40    20    21    1
    41    20    50    1
    42    20    51    1
    43    21    22    1
    44    21    52    1
    45    21    53    1
    46    22    30   ar
    47    22    23   ar
    48    23    24    1
    49    23    25   ar
    50    24    54    1
    51    24    55    1
    52    24    56    1
    53    25    26   ar
    54    26    27    1
    55    26    29   ar
    56    27    28    1
    57    28    57    1
    58    28    58    1
    59    28    59    1
    60    29    30   ar
    61    30    31    1
    62    31    60    1
    63    31    61    1
    64    31    62    1
@<TRIPOS>SUBSTRUCTURE
     1 ZINC000465392830        1 TEMP              0 ****  ****    0 ROOT


##########                                Name:    ZINC001004075025
##########                DOCK_Rotatable_Bonds:                   8
##########                         Heavy_Atoms:                  25
##########                    Molecular_Weight:              349.43
##########                DOCK_Rotatable_Bonds:                   8
##########                       Formal_Charge:         -0.00999999
##########                     HBond_Acceptors:                   7
##########                        HBond_Donors:                   1
##########                         Heavy_Atoms:                  25
##########                          Grid_Score:          -32.247700
##########                     Grid_vdw_energy:          -28.754562
##########                      Grid_es_energy:           -3.493136
##########           Internal_energy_repulsive:            5.861036

@<TRIPOS>MOLECULE
ZINC001004075025
 52 54 1 0 0
SMALL
USER_CHARGES


@<TRIPOS>ATOM
      1 C1        -16.5734    1.9549   65.5847 C.3     1  ZINC001004075025   -0.1500
      2 C2        -15.1699    2.4347   65.2092 C.3     1  ZINC001004075025   -0.1200
      3 C3        -14.9597    2.2670   63.7031 C.3     1  ZINC001004075025    0.0800
      4 H4        -15.7268    2.8106   63.1517 H       1  ZINC001004075025    0.0700
      5 C5        -13.5501    2.7670   63.2979 C.3     1  ZINC001004075025   -0.1500
      6 C6        -13.3108    1.9520   61.9976 C.3     1  ZINC001004075025   -0.1400
      7 C7        -14.0287    0.6211   62.3083 C.3     1  ZINC001004075025    0.0700
      8 H8        -13.3038   -0.1207   62.6433 H       1  ZINC001004075025    0.1100
      9 C9        -14.7376    0.1227   61.0754 C.2     1  ZINC001004075025    0.5300
     10 O10       -15.8762    0.4726   60.8473 O.2     1  ZINC001004075025   -0.5200
     11 N11       -14.1063   -0.7120   60.2262 N.am    1  ZINC001004075025   -0.6500
     12 C12       -14.4379   -1.3864   58.9619 C.3     1  ZINC001004075025    0.1100
     13 C13       -13.4294   -2.4791   59.3431 C.3     1  ZINC001004075025   -0.1400
     14 C14       -12.5765   -2.9802   58.1759 C.3     1  ZINC001004075025    0.1300
     15 N15       -11.1708   -3.0317   58.5851 N.am    1  ZINC001004075025   -0.7200
     16 C16       -10.1961   -2.9846   57.6554 C.2     1  ZINC001004075025    0.6000
     17 O17       -10.4836   -2.8980   56.4770 O.2     1  ZINC001004075025   -0.5300
     18 C18        -8.7817   -3.0381   58.0671 C.2     1  ZINC001004075025   -0.2700
     19 C19        -7.9804   -2.0153   58.5124 C.2     1  ZINC001004075025    0.0700
     20 C20        -8.3722   -0.5705   58.6856 C.3     1  ZINC001004075025   -0.0300
     21 C21        -8.3637   -0.2147   60.1737 C.3     1  ZINC001004075025   -0.1500
     22 C22        -7.3753    0.3210   57.9425 C.3     1  ZINC001004075025   -0.1500
     23 O23        -6.7853   -2.5557   58.7613 O.3     1  ZINC001004075025    0.1000
     24 N24        -6.7439   -3.7402   58.5356 N.2     1  ZINC001004075025   -0.3500
     25 C25        -7.8820   -4.2011   58.1084 C.2     1  ZINC001004075025    0.0200
     26 C26       -12.7805   -1.3442   60.1525 C.3     1  ZINC001004075025    0.1100
     27 O27       -14.9826    0.8752   63.3482 O.3     1  ZINC001004075025   -0.3400
     28 H28       -16.7232    2.0742   66.6578 H       1  ZINC001004075025    0.0600
     29 H29       -17.3151    2.5448   65.0464 H       1  ZINC001004075025    0.0500
     30 H30       -16.6816    0.9037   65.3175 H       1  ZINC001004075025    0.0600
     31 H31       -15.0617    3.4858   65.4764 H       1  ZINC001004075025    0.0800
     32 H32       -14.4281    1.8446   65.7476 H       1  ZINC001004075025    0.0700
     33 H33       -13.5566    3.8379   63.0947 H       1  ZINC001004075025    0.0900
     34 H34       -12.8111    2.5179   64.0593 H       1  ZINC001004075025    0.0900
     35 H35       -13.7659    2.4474   61.1400 H       1  ZINC001004075025    0.0800
     36 H36       -12.2458    1.7888   61.8326 H       1  ZINC001004075025    0.0900
     37 H37       -15.4671   -1.7423   58.9167 H       1  ZINC001004075025    0.0900
     38 H38       -14.1486   -0.8180   58.0779 H       1  ZINC001004075025    0.0900
     39 H39       -13.8492   -3.2837   59.9467 H       1  ZINC001004075025    0.1100
     40 H40       -12.9073   -3.9777   57.8863 H       1  ZINC001004075025    0.0800
     41 H41       -12.6840   -2.3018   57.3297 H       1  ZINC001004075025    0.0800
     42 H42       -10.9415   -3.0996   59.5253 H       1  ZINC001004075025    0.4000
     43 H43        -9.3719   -0.4140   58.2804 H       1  ZINC001004075025    0.1300
     44 H44        -7.3641   -0.3711   60.5790 H       1  ZINC001004075025    0.0600
     45 H45        -8.6472    0.8304   60.2990 H       1  ZINC001004075025    0.0700
     46 H46        -9.0740   -0.8497   60.7032 H       1  ZINC001004075025    0.0600
     47 H47        -6.3756    0.1645   58.3477 H       1  ZINC001004075025    0.0600
     48 H48        -7.3813    0.0675   56.8823 H       1  ZINC001004075025    0.0600
     49 H49        -7.6587    1.3660   58.0677 H       1  ZINC001004075025    0.0700
     50 H50        -8.1153   -5.2197   57.8355 H       1  ZINC001004075025    0.2000
     51 H51       -12.0516   -0.7670   59.5835 H       1  ZINC001004075025    0.0900
     52 H52       -12.4004   -1.6651   61.1223 H       1  ZINC001004075025    0.0800
@<TRIPOS>BOND
     1     1     2    1
     2     1    28    1
     3     1    29    1
     4     1    30    1
     5     2     3    1
     6     2    31    1
     7     2    32    1
     8     3     4    1
     9     3    27    1
    10     3     5    1
    11     5     6    1
    12     5    33    1
    13     5    34    1
    14     6     7    1
    15     6    35    1
    16     6    36    1
    17     7     8    1
    18     7     9    1
    19     7    27    1
    20     9    10    2
    21     9    11   am
    22    11    26    1
    23    11    12    1
    24    12    13    1
    25    12    37    1
    26    12    38    1
    27    13    14    1
    28    13    26    1
    29    13    39    1
    30    14    15    1
    31    14    40    1
    32    14    41    1
    33    15    16   am
    34    15    42    1
    35    16    17    2
    36    16    18    1
    37    18    25    1
    38    18    19    2
    39    19    20    1
    40    19    23    1
    41    20    21    1
    42    20    22    1
    43    20    43    1
    44    21    44    1
    45    21    45    1
    46    21    46    1
    47    22    47    1
    48    22    48    1
    49    22    49    1
    50    23    24    1
    51    24    25    2
    52    25    50    1
    53    26    51    1
    54    26    52    1
@<TRIPOS>SUBSTRUCTURE
     1 ZINC001004075025        1 TEMP              0 ****  ****    0 ROOT


##########                                Name:    ZINC000193795672
##########                DOCK_Rotatable_Bonds:                  10
##########                         Heavy_Atoms:                  23
##########                    Molecular_Weight:              332.47
##########                DOCK_Rotatable_Bonds:                  10
##########                       Formal_Charge:        -2.98023e-07
##########                     HBond_Acceptors:                   6
##########                        HBond_Donors:                   3
##########                         Heavy_Atoms:                  23
##########                          Grid_Score:          -32.236839
##########                     Grid_vdw_energy:          -31.525990
##########                      Grid_es_energy:           -0.710851
##########           Internal_energy_repulsive:           10.154374

@<TRIPOS>MOLECULE
ZINC000193795672
 47 48 1 0 0
SMALL
USER_CHARGES


@<TRIPOS>ATOM
      1 C1         -1.7497    0.4481   44.9890 C.3     1  <0>        -0.1000
      2 C2         -2.1642    1.0872   46.2894 C.ar    1  <0>        -0.2000
      3 C3         -1.8465    0.4849   47.4993 C.ar    1  <0>        -0.0300
      4 C4         -2.2453    1.1046   48.6701 C.ar    1  <0>        -0.2400
      5 C5         -2.9470    2.3033   48.5959 C.ar    1  <0>         0.4000
      6 N6         -3.3538    2.9367   49.7645 N.pl3   1  <0>        -0.7300
      7 C7         -4.6885    3.5349   49.8470 C.3     1  <0>         0.1300
      8 C8         -5.5175    2.7897   50.8951 C.3     1  <0>        -0.1400
      9 C9         -6.3002    1.6623   50.2189 C.3     1  <0>         0.1400
     10 N10        -6.8183    0.7474   51.2390 N.am    1  <0>        -0.7500
     11 C11        -7.9071    1.0860   51.9575 C.2     1  <0>         0.7100
     12 O12        -8.4603    2.1502   51.7579 O.2     1  <0>        -0.5900
     13 N13        -8.3828    0.2450   52.8971 N.am    1  <0>        -0.7400
     14 C14        -9.5652    0.6139   53.6794 C.3     1  <0>         0.1700
     15 H15        -9.5358    1.6806   53.9012 H       1  <0>         0.0900
     16 C16       -10.8279    0.2944   52.8765 C.3     1  <0>        -0.1700
     17 C17        -9.5788   -0.1790   54.9879 C.3     1  <0>        -0.0600
     18 C18        -8.5539    0.3937   55.9328 C.2     1  <0>        -0.1700
     19 C19        -8.5151    0.1770   57.2484 C.2     1  <0>        -0.1400
     20 C20        -7.4788    0.8095   57.9134 C.2     1  <0>        -0.1300
     21 C21        -6.6761    1.5398   57.1378 C.2     1  <0>        -0.2100
     22 S22        -7.2216    1.4438   55.4684 S.3     1  <0>         0.0900
     23 N23        -3.2306    2.8466   47.4221 N.ar    1  <0>        -0.5400
     24 C24        -2.8587    2.2804   46.2897 C.ar    1  <0>         0.1500
     25 H25        -0.7619    0.8108   44.7046 H       1  <0>         0.0700
     26 H26        -1.7180   -0.6347   45.1101 H       1  <0>         0.0600
     27 H27        -2.4691    0.7060   44.2119 H       1  <0>         0.0700
     28 H28        -1.3007   -0.4467   47.5259 H       1  <0>         0.1300
     29 H29        -2.0152    0.6635   49.6287 H       1  <0>         0.1300
     30 H30        -2.7538    2.9827   50.5254 H       1  <0>         0.4000
     31 H31        -4.5998    4.5832   50.1322 H       1  <0>         0.0700
     32 H32        -5.1798    3.4626   48.8767 H       1  <0>         0.0700
     33 H33        -4.8542    2.3689   51.6509 H       1  <0>         0.0800
     34 H34        -6.2135    3.4827   51.3677 H       1  <0>         0.0800
     35 H35        -7.1311    2.0849   49.6541 H       1  <0>         0.0700
     36 H36        -5.6414    1.1173   49.5429 H       1  <0>         0.0700
     37 H37        -6.3777   -0.1022   51.3974 H       1  <0>         0.4000
     38 H38        -7.9421   -0.6045   53.0556 H       1  <0>         0.3900
     39 H39       -10.8572   -0.7723   52.6547 H       1  <0>         0.0600
     40 H40       -11.7077    0.5689   53.4585 H       1  <0>         0.0700
     41 H41       -10.8182    0.8592   51.9443 H       1  <0>         0.0700
     42 H42       -10.5677   -0.1142   55.4417 H       1  <0>         0.1000
     43 H43        -9.3407   -1.2227   54.7828 H       1  <0>         0.0800
     44 H44        -9.2376   -0.4446   57.7563 H       1  <0>         0.1400
     45 H45        -7.3316    0.7188   58.9794 H       1  <0>         0.1400
     46 H46        -5.8200    2.1012   57.4817 H       1  <0>         0.1600
     47 H47        -3.1078    2.7524   45.3509 H       1  <0>         0.1500
@<TRIPOS>BOND
     1     1     2    1
     2     1    25    1
     3     1    26    1
     4     1    27    1
     5     2    24   ar
     6     2     3   ar
     7     3     4   ar
     8     3    28    1
     9     4     5   ar
    10     4    29    1
    11     5     6    1
    12     5    23   ar
    13     6     7    1
    14     6    30    1
    15     7     8    1
    16     7    31    1
    17     7    32    1
    18     8     9    1
    19     8    33    1
    20     8    34    1
    21     9    10    1
    22     9    35    1
    23     9    36    1
    24    10    11   am
    25    10    37    1
    26    11    12    2
    27    11    13   am
    28    13    14    1
    29    13    38    1
    30    14    15    1
    31    14    16    1
    32    14    17    1
    33    16    39    1
    34    16    40    1
    35    16    41    1
    36    17    18    1
    37    17    42    1
    38    17    43    1
    39    18    22    1
    40    18    19    2
    41    19    20    1
    42    19    44    1
    43    20    21    2
    44    20    45    1
    45    21    22    1
    46    21    46    1
    47    23    24   ar
    48    24    47    1
@<TRIPOS>SUBSTRUCTURE
     1 <0>         1 TEMP              0 ****  ****    0 ROOT


##########                                Name:    ZINC000151820600
##########                DOCK_Rotatable_Bonds:                  10
##########                         Heavy_Atoms:                  25
##########                    Molecular_Weight:             388.915
##########                DOCK_Rotatable_Bonds:                  10
##########                       Formal_Charge:           0.0499998
##########                     HBond_Acceptors:                   8
##########                        HBond_Donors:                   2
##########                         Heavy_Atoms:                  25
##########                          Grid_Score:          -32.232239
##########                     Grid_vdw_energy:          -30.284159
##########                      Grid_es_energy:           -1.948081
##########           Internal_energy_repulsive:           16.563162

@<TRIPOS>MOLECULE
ZINC000151820600
 50 50 1 0 0
SMALL
USER_CHARGES


@<TRIPOS>ATOM
      1 C1        -13.6321    1.7563   50.1354 C.3     1  ZINC000151820600   -0.4900
      2 S2        -13.5739    0.6822   51.5960 S.o     1  ZINC000151820600    1.2500
      3 O3        -14.5221    1.1331   52.5536 O.2     1  ZINC000151820600   -0.8500
      4 C4        -11.8968    0.9504   52.2331 C.3     1  ZINC000151820600   -0.4500
      5 C5        -11.6857    0.1000   53.4873 C.3     1  ZINC000151820600   -0.1100
      6 C6        -10.2384    0.2428   53.9627 C.3     1  ZINC000151820600    0.1200
      7 N7        -10.1875    0.1066   55.4205 N.am    1  ZINC000151820600   -0.7200
      8 C8        -10.2786   -1.1130   55.9870 C.2     1  ZINC000151820600    0.5200
      9 O9        -10.4041   -2.0976   55.2898 O.2     1  ZINC000151820600   -0.5200
     10 C10       -10.2245   -1.2533   57.4863 C.3     1  ZINC000151820600    0.1900
     11 H11       -10.0433   -0.2772   57.9363 H       1  ZINC000151820600    0.1300
     12 N12       -11.4994   -1.7864   57.9732 N.am    1  ZINC000151820600   -0.6900
     13 C13       -12.5746   -0.9794   58.0692 C.2     1  ZINC000151820600    0.6600
     14 O14       -12.4863    0.1906   57.7533 O.2     1  ZINC000151820600   -0.5600
     15 O15       -13.7466   -1.4697   58.5152 O.3     1  ZINC000151820600   -0.3600
     16 C16       -14.3898   -2.4842   57.6995 C.3     1  ZINC000151820600    0.1400
     17 C17       -14.0806   -2.2237   56.2239 C.3     1  ZINC000151820600   -0.1800
     18 C18       -13.8635   -3.8655   58.0947 C.3     1  ZINC000151820600   -0.1400
     19 C19       -15.9028   -2.4325   57.9204 C.3     1  ZINC000151820600   -0.1800
     20 C20        -9.1097   -2.1948   57.8629 C.ar    1  ZINC000151820600   -0.1000
     21 C21        -7.8492   -1.6985   58.1374 C.ar    1  ZINC000151820600   -0.0900
     22 C22        -6.8261   -2.5617   58.4835 C.ar    1  ZINC000151820600   -0.1000
     23 C23        -7.0630   -3.9213   58.5546 C.ar    1  ZINC000151820600   -0.1000
     24 C24        -8.3248   -4.4187   58.2798 C.ar    1  ZINC000151820600   -0.0300
     25 Cl25       -8.6234   -6.1265   58.3695 Cl      1  ZINC000151820600   -0.0600
     26 C26        -9.3494   -3.5541   57.9392 C.ar    1  ZINC000151820600   -0.0900
     27 H27       -13.4587    2.7894   50.4369 H       1  ZINC000151820600    0.0800
     28 H28       -12.8613    1.4500   49.4281 H       1  ZINC000151820600    0.1100
     29 H29       -14.6113    1.6751   49.6633 H       1  ZINC000151820600    0.1100
     30 H30       -11.1694    0.6641   51.4734 H       1  ZINC000151820600    0.1200
     31 H31       -11.7668    2.0035   52.4822 H       1  ZINC000151820600    0.0900
     32 H32       -12.3612    0.4376   54.2733 H       1  ZINC000151820600    0.0800
     33 H33       -11.8907   -0.9454   53.2563 H       1  ZINC000151820600    0.0900
     34 H34        -9.6269   -0.5340   53.5036 H       1  ZINC000151820600    0.0800
     35 H35        -9.8567    1.2226   53.6758 H       1  ZINC000151820600    0.0700
     36 H36       -10.0884    0.8941   55.9781 H       1  ZINC000151820600    0.4000
     37 H37       -11.5695   -2.7201   58.2266 H       1  ZINC000151820600    0.4200
     38 H38       -13.0025   -2.2606   56.0666 H       1  ZINC000151820600    0.0600
     39 H39       -14.5633   -2.9853   55.6116 H       1  ZINC000151820600    0.0700
     40 H40       -14.4554   -1.2397   55.9423 H       1  ZINC000151820600    0.0900
     41 H41       -14.0838   -4.0511   59.1460 H       1  ZINC000151820600    0.0700
     42 H42       -14.3463   -4.6271   57.4824 H       1  ZINC000151820600    0.0800
     43 H43       -12.7855   -3.9023   57.9374 H       1  ZINC000151820600    0.0700
     44 H44       -16.2777   -1.4485   57.6388 H       1  ZINC000151820600    0.0900
     45 H45       -16.3856   -3.1941   57.3080 H       1  ZINC000151820600    0.0700
     46 H46       -16.1231   -2.6181   58.9716 H       1  ZINC000151820600    0.0600
     47 H47        -7.6634   -0.6361   58.0813 H       1  ZINC000151820600    0.1300
     48 H48        -5.8414   -2.1734   58.6979 H       1  ZINC000151820600    0.1400
     49 H49        -6.2636   -4.5955   58.8241 H       1  ZINC000151820600    0.1400
     50 H50       -10.3344   -3.9417   57.7247 H       1  ZINC000151820600    0.1400
@<TRIPOS>BOND
     1     1     2    1
     2     1    27    1
     3     1    28    1
     4     1    29    1
     5     2     3    2
     6     2     4    1
     7     4     5    1
     8     4    30    1
     9     4    31    1
    10     5     6    1
    11     5    32    1
    12     5    33    1
    13     6     7    1
    14     6    34    1
    15     6    35    1
    16     7     8   am
    17     7    36    1
    18     8     9    2
    19     8    10    1
    20    10    11    1
    21    10    12    1
    22    10    20    1
    23    12    13   am
    24    12    37    1
    25    13    14    2
    26    13    15    1
    27    15    16    1
    28    16    17    1
    29    16    18    1
    30    16    19    1
    31    17    38    1
    32    17    39    1
    33    17    40    1
    34    18    41    1
    35    18    42    1
    36    18    43    1
    37    19    44    1
    38    19    45    1
    39    19    46    1
    40    20    26   ar
    41    20    21   ar
    42    21    22   ar
    43    21    47    1
    44    22    23   ar
    45    22    48    1
    46    23    24   ar
    47    23    49    1
    48    24    25    1
    49    24    26   ar
    50    26    50    1
@<TRIPOS>SUBSTRUCTURE
     1 ZINC000151820600        1 TEMP              0 ****  ****    0 ROOT


##########                                Name:    ZINC001408567397
##########                DOCK_Rotatable_Bonds:                   9
##########                         Heavy_Atoms:                  24
##########                    Molecular_Weight:             336.434
##########                DOCK_Rotatable_Bonds:                   9
##########                       Formal_Charge:          -0.0199996
##########                     HBond_Acceptors:                   7
##########                        HBond_Donors:                   2
##########                         Heavy_Atoms:                  24
##########                          Grid_Score:          -32.192280
##########                     Grid_vdw_energy:          -27.888206
##########                      Grid_es_energy:           -4.304072
##########           Internal_energy_repulsive:           19.474104

@<TRIPOS>MOLECULE
ZINC001408567397
 52 53 1 0 0
SMALL
USER_CHARGES


@<TRIPOS>ATOM
      1 C1         -2.2014    1.4629   45.8582 C.3     1  ZINC001408567397   -0.0800
      2 C2         -1.5352    1.0610   47.1489 C.2     1  ZINC001408567397    0.0900
      3 N3         -0.7684    0.0154   47.3232 N.2     1  ZINC001408567397   -0.2900
      4 N4         -0.3499   -0.0024   48.6600 N.pl3   1  ZINC001408567397   -0.4700
      5 C5         -0.8919    1.0671   49.2792 C.2     1  ZINC001408567397    0.1100
      6 C6         -0.7085    1.4429   50.7270 C.3     1  ZINC001408567397   -0.1000
      7 C7         -1.6252    1.7447   48.3658 C.2     1  ZINC001408567397   -0.2200
      8 C8         -2.4076    3.0078   48.6174 C.3     1  ZINC001408567397   -0.0600
      9 C9         -3.7734    2.6554   49.1479 C.2     1  ZINC001408567397    0.5100
     10 O10        -4.7279    3.3523   48.8759 O.2     1  ZINC001408567397   -0.5300
     11 N11        -3.9342    1.5657   49.9245 N.am    1  ZINC001408567397   -0.7300
     12 C12        -5.2623    1.2221   50.4388 C.3     1  ZINC001408567397    0.1100
     13 C13        -5.5873    2.1073   51.6436 C.3     1  ZINC001408567397    0.1000
     14 N14        -6.8865    1.7192   52.1984 N.am    1  ZINC001408567397   -0.6200
     15 C15        -7.8914    1.0891   51.3384 C.3     1  ZINC001408567397    0.0700
     16 C16        -7.1572    1.9417   53.4998 C.2     1  ZINC001408567397    0.5100
     17 O17        -8.2321    1.6190   53.9593 O.2     1  ZINC001408567397   -0.5300
     18 C18        -6.1241    2.5913   54.3839 C.3     1  ZINC001408567397   -0.1300
     19 C19        -6.7553    2.9429   55.7325 C.3     1  ZINC001408567397   -0.1100
     20 H20        -7.7971    3.2271   55.5840 H       1  ZINC001408567397    0.0900
     21 C21        -6.6839    1.7285   56.6633 C.3     1  ZINC001408567397   -0.1200
     22 C22        -7.2474    2.1157   58.0340 C.3     1  ZINC001408567397   -0.1600
     23 C23        -6.4644    3.3127   58.5795 C.3     1  ZINC001408567397    0.0600
     24 O24        -6.5463    4.3966   57.6518 O.3     1  ZINC001408567397   -0.3800
     25 C25        -5.9923    4.1090   56.3662 C.3     1  ZINC001408567397    0.0600
     26 H26        -1.5366    2.1176   45.2947 H       1  ZINC001408567397    0.0800
     27 H27        -2.4193    0.5722   45.2690 H       1  ZINC001408567397    0.0700
     28 H28        -3.1301    1.9898   46.0774 H       1  ZINC001408567397    0.0800
     29 H29         0.2275   -0.6663   49.0684 H       1  ZINC001408567397    0.4400
     30 H30         0.1591    2.0951   50.8260 H       1  ZINC001408567397    0.0800
     31 H31        -1.5974    1.9641   51.0825 H       1  ZINC001408567397    0.0900
     32 H32        -0.5547    0.5411   51.3197 H       1  ZINC001408567397    0.0700
     33 H33        -1.8813    3.6217   49.3483 H       1  ZINC001408567397    0.1000
     34 H34        -2.5120    3.5624   47.6849 H       1  ZINC001408567397    0.1000
     35 H35        -3.1706    1.0090   50.1432 H       1  ZINC001408567397    0.4000
     36 H36        -6.0066    1.3824   49.6588 H       1  ZINC001408567397    0.0700
     37 H37        -5.2745    0.1755   50.7430 H       1  ZINC001408567397    0.0700
     38 H38        -4.8161    1.9837   52.4038 H       1  ZINC001408567397    0.0800
     39 H39        -5.6237    3.1502   51.3290 H       1  ZINC001408567397    0.0900
     40 H40        -7.7630    0.0070   51.3621 H       1  ZINC001408567397    0.0600
     41 H41        -8.8884    1.3445   51.6974 H       1  ZINC001408567397    0.0800
     42 H42        -7.7707    1.4471   50.3160 H       1  ZINC001408567397    0.0800
     43 H43        -5.2941    1.9023   54.5398 H       1  ZINC001408567397    0.1000
     44 H44        -5.7572    3.5001   53.9066 H       1  ZINC001408567397    0.1000
     45 H45        -7.2727    0.9127   56.2442 H       1  ZINC001408567397    0.0700
     46 H46        -5.6463    1.4128   56.7717 H       1  ZINC001408567397    0.0600
     47 H47        -8.2991    2.3839   57.9329 H       1  ZINC001408567397    0.0700
     48 H48        -7.1497    1.2736   58.7192 H       1  ZINC001408567397    0.0700
     49 H49        -6.8888    3.6196   59.5354 H       1  ZINC001408567397    0.0900
     50 H50        -5.4205    3.0314   58.7185 H       1  ZINC001408567397    0.0500
     51 H51        -4.9421    3.8379   56.4753 H       1  ZINC001408567397    0.0400
     52 H52        -6.0763    4.9894   55.7290 H       1  ZINC001408567397    0.1100
@<TRIPOS>BOND
     1     1     2    1
     2     1    26    1
     3     1    27    1
     4     1    28    1
     5     2     7    1
     6     2     3    2
     7     3     4    1
     8     4     5    1
     9     4    29    1
    10     5     6    1
    11     5     7    2
    12     6    30    1
    13     6    31    1
    14     6    32    1
    15     7     8    1
    16     8     9    1
    17     8    33    1
    18     8    34    1
    19     9    10    2
    20     9    11   am
    21    11    12    1
    22    11    35    1
    23    12    13    1
    24    12    36    1
    25    12    37    1
    26    13    14    1
    27    13    38    1
    28    13    39    1
    29    14    15    1
    30    14    16   am
    31    15    40    1
    32    15    41    1
    33    15    42    1
    34    16    17    2
    35    16    18    1
    36    18    19    1
    37    18    43    1
    38    18    44    1
    39    19    20    1
    40    19    25    1
    41    19    21    1
    42    21    22    1
    43    21    45    1
    44    21    46    1
    45    22    23    1
    46    22    47    1
    47    22    48    1
    48    23    24    1
    49    23    49    1
    50    23    50    1
    51    24    25    1
    52    25    51    1
    53    25    52    1
@<TRIPOS>SUBSTRUCTURE
     1 ZINC001408567397        1 TEMP              0 ****  ****    0 ROOT


##########                                Name:    ZINC001310073555
##########                DOCK_Rotatable_Bonds:                  12
##########                         Heavy_Atoms:                  27
##########                    Molecular_Weight:             380.484
##########                DOCK_Rotatable_Bonds:                  12
##########                       Formal_Charge:          0.00999888
##########                     HBond_Acceptors:                   7
##########                        HBond_Donors:                   2
##########                         Heavy_Atoms:                  27
##########                          Grid_Score:          -32.188496
##########                     Grid_vdw_energy:          -31.954456
##########                      Grid_es_energy:           -0.234040
##########           Internal_energy_repulsive:           47.599606

@<TRIPOS>MOLECULE
ZINC001310073555
 59 59 1 0 0
SMALL
USER_CHARGES


@<TRIPOS>ATOM
      1 C1         -1.3515    4.8176   50.3995 C.3     1  ZINC001310073555   -0.1600
      2 C2         -2.5114    4.3010   49.5458 C.3     1  ZINC001310073555   -0.1100
      3 C3         -2.9956    2.9601   50.1011 C.3     1  ZINC001310073555   -0.0600
      4 C4         -3.1349    3.0582   51.6216 C.3     1  ZINC001310073555   -0.1100
      5 C5         -3.7650    1.7721   52.1600 C.3     1  ZINC001310073555   -0.1600
      6 C6         -4.3528    2.6135   49.4859 C.3     1  ZINC001310073555    0.1600
      7 N7         -5.3329    3.6372   49.8570 N.am    1  ZINC001310073555   -0.7400
      8 C8         -6.6513    3.3738   49.7616 C.2     1  ZINC001310073555    0.7100
      9 O9         -7.0272    2.2861   49.3690 O.2     1  ZINC001310073555   -0.5700
     10 N10        -7.5529    4.3162   50.1014 N.am    1  ZINC001310073555   -0.6700
     11 C11        -8.9261    4.0421   50.0022 C.ar    1  ZINC001310073555    0.1000
     12 C12        -9.6220    4.3907   48.8549 C.ar    1  ZINC001310073555   -0.0400
     13 C13       -10.9742    4.1209   48.7570 C.ar    1  ZINC001310073555   -0.2200
     14 C14       -11.6374    3.5007   49.8052 C.ar    1  ZINC001310073555    0.1500
     15 O15       -12.9675    3.2366   49.7058 O.3     1  ZINC001310073555   -0.3200
     16 C16       -13.3384    1.9740   49.1488 C.3     1  ZINC001310073555    0.0300
     17 C17       -10.9451    3.1492   50.9547 C.ar    1  ZINC001310073555   -0.2300
     18 C18        -9.5896    3.4143   51.0539 C.ar    1  ZINC001310073555    0.1400
     19 O19        -8.9091    3.0705   52.1800 O.3     1  ZINC001310073555   -0.3100
     20 C20        -8.7206    1.6751   52.4235 C.3     1  ZINC001310073555    0.0300
     21 C21        -1.9983    1.8841   49.7565 C.2     1  ZINC001310073555    0.4800
     22 O22        -0.9136    1.8730   50.2887 O.2     1  ZINC001310073555   -0.5000
     23 O23        -2.3150    0.9381   48.8585 O.3     1  ZINC001310073555   -0.3400
     24 C24        -1.6862    1.0315   47.5531 C.3     1  ZINC001310073555    0.1200
     25 C25        -2.5157    1.9483   46.6519 C.3     1  ZINC001310073555   -0.1800
     26 C26        -0.2764    1.6060   47.7060 C.3     1  ZINC001310073555   -0.1400
     27 C27        -1.6039   -0.3616   46.9258 C.3     1  ZINC001310073555   -0.1800
     28 H28        -1.0066    5.7730   50.0039 H       1  ZINC001310073555    0.0600
     29 H29        -1.6882    4.9505   51.4277 H       1  ZINC001310073555    0.0500
     30 H30        -0.5336    4.0976   50.3752 H       1  ZINC001310073555    0.0600
     31 H31        -3.3293    5.0210   49.5701 H       1  ZINC001310073555    0.0800
     32 H32        -2.1747    4.1682   48.5176 H       1  ZINC001310073555    0.0800
     33 H33        -2.1503    3.1952   52.0686 H       1  ZINC001310073555    0.0800
     34 H34        -3.7700    3.9073   51.8742 H       1  ZINC001310073555    0.0800
     35 H35        -4.7496    1.6351   51.7130 H       1  ZINC001310073555    0.0600
     36 H36        -3.1299    0.9230   51.9075 H       1  ZINC001310073555    0.0500
     37 H37        -3.8643    1.8420   53.2432 H       1  ZINC001310073555    0.0600
     38 H38        -4.2606    2.5752   48.4005 H       1  ZINC001310073555    0.0800
     39 H39        -4.6827    1.6431   49.8569 H       1  ZINC001310073555    0.0800
     40 H40        -5.0330    4.5044   50.1713 H       1  ZINC001310073555    0.4000
     41 H41        -7.2531    5.1839   50.4146 H       1  ZINC001310073555    0.4100
     42 H42        -9.1075    4.8738   48.0374 H       1  ZINC001310073555    0.1500
     43 H43       -11.5151    4.3937   47.8629 H       1  ZINC001310073555    0.1300
     44 H44       -12.9476    1.8956   48.1342 H       1  ZINC001310073555    0.0600
     45 H45       -12.9253    1.1717   49.7602 H       1  ZINC001310073555    0.0600
     46 H46       -14.4250    1.8916   49.1271 H       1  ZINC001310073555    0.1000
     47 H47       -11.4624    2.6663   51.7705 H       1  ZINC001310073555    0.1400
     48 H48        -8.1646    1.5400   53.3511 H       1  ZINC001310073555    0.1000
     49 H49        -9.6913    1.1865   52.5072 H       1  ZINC001310073555    0.0600
     50 H50        -8.1621    1.2343   51.5976 H       1  ZINC001310073555    0.0600
     51 H51        -2.5743    2.9408   47.0988 H       1  ZINC001310073555    0.0600
     52 H52        -2.0437    2.0185   45.6719 H       1  ZINC001310073555    0.0700
     53 H53        -3.5201    1.5390   46.5430 H       1  ZINC001310073555    0.0800
     54 H54         0.3144    0.9528   48.3479 H       1  ZINC001310073555    0.0700
     55 H55         0.1956    1.6762   46.7259 H       1  ZINC001310073555    0.0800
     56 H56        -0.3351    2.5985   48.1528 H       1  ZINC001310073555    0.0700
     57 H57        -2.6083   -0.7710   46.8169 H       1  ZINC001310073555    0.0800
     58 H58        -1.1319   -0.2915   45.9459 H       1  ZINC001310073555    0.0700
     59 H59        -1.0129   -1.0149   47.5678 H       1  ZINC001310073555    0.0600
@<TRIPOS>BOND
     1     1     2    1
     2     1    28    1
     3     1    29    1
     4     1    30    1
     5     2     3    1
     6     2    31    1
     7     2    32    1
     8     3     4    1
     9     3     6    1
    10     3    21    1
    11     4     5    1
    12     4    33    1
    13     4    34    1
    14     5    35    1
    15     5    36    1
    16     5    37    1
    17     6     7    1
    18     6    38    1
    19     6    39    1
    20     7     8   am
    21     7    40    1
    22     8     9    2
    23     8    10   am
    24    10    11    1
    25    10    41    1
    26    11    18   ar
    27    11    12   ar
    28    12    13   ar
    29    12    42    1
    30    13    14   ar
    31    13    43    1
    32    14    15    1
    33    14    17   ar
    34    15    16    1
    35    16    44    1
    36    16    45    1
    37    16    46    1
    38    17    18   ar
    39    17    47    1
    40    18    19    1
    41    19    20    1
    42    20    48    1
    43    20    49    1
    44    20    50    1
    45    21    22    2
    46    21    23    1
    47    23    24    1
    48    24    25    1
    49    24    26    1
    50    24    27    1
    51    25    51    1
    52    25    52    1
    53    25    53    1
    54    26    54    1
    55    26    55    1
    56    26    56    1
    57    27    57    1
    58    27    58    1
    59    27    59    1
@<TRIPOS>SUBSTRUCTURE
     1 ZINC001310073555        1 TEMP              0 ****  ****    0 ROOT


##########                                Name:    ZINC001083519372
##########                DOCK_Rotatable_Bonds:                   7
##########                         Heavy_Atoms:                  27
##########                    Molecular_Weight:             370.411
##########                DOCK_Rotatable_Bonds:                   7
##########                       Formal_Charge:           0.0399996
##########                     HBond_Acceptors:                   9
##########                        HBond_Donors:                   2
##########                         Heavy_Atoms:                  27
##########                          Grid_Score:          -32.188339
##########                     Grid_vdw_energy:          -30.009253
##########                      Grid_es_energy:           -2.179088
##########           Internal_energy_repulsive:            9.385690

@<TRIPOS>MOLECULE
ZINC001083519372
 49 52 1 0 0
SMALL
USER_CHARGES


@<TRIPOS>ATOM
      1 C1        -13.3193   -1.8987   59.9996 C.3     1  ZINC001083519372   -0.1500
      2 C2        -13.0631   -2.8926   58.8650 C.3     1  ZINC001083519372   -0.0100
      3 C3        -14.2727   -3.8173   58.7143 C.3     1  ZINC001083519372   -0.1500
      4 C4        -12.8429   -2.1400   57.5780 C.2     1  ZINC001083519372   -0.0100
      5 C5        -11.6687   -1.9563   56.9520 C.2     1  ZINC001083519372   -0.0100
      6 C6        -10.3271   -2.4672   57.4104 C.3     1  ZINC001083519372    0.1300
      7 N7         -9.4783   -1.3333   57.7999 N.3     1  ZINC001083519372   -0.5000
      8 C8         -9.7615   -0.9113   59.1956 C.3     1  ZINC001083519372    0.0300
      9 C9         -8.4862   -0.1273   59.5946 C.3     1  ZINC001083519372    0.1500
     10 H10        -8.5221    0.8909   59.2071 H       1  ZINC001083519372    0.1200
     11 N11        -8.3158   -0.1205   61.0496 N.am    1  ZINC001083519372   -0.6900
     12 C12        -8.9160    0.8293   61.7940 C.2     1  ZINC001083519372    0.5600
     13 O13        -9.6002    1.6797   61.2580 O.2     1  ZINC001083519372   -0.5100
     14 C14        -8.7432    0.8373   63.2588 C.2     1  ZINC001083519372    0.1400
     15 C15        -7.5726    0.4093   63.8249 C.2     1  ZINC001083519372   -0.1500
     16 C16        -7.4391    0.4290   65.2197 C.2     1  ZINC001083519372    0.1800
     17 N17        -8.4233    0.8523   65.9760 N.2     1  ZINC001083519372   -0.4400
     18 C18        -9.5743    1.2743   65.4423 C.2     1  ZINC001083519372    0.2500
     19 C19       -10.7492    1.7612   66.0050 C.2     1  ZINC001083519372   -0.2500
     20 C20       -11.6233    2.0488   64.9698 C.2     1  ZINC001083519372    0.1000
     21 N21       -11.0416    1.7632   63.8253 N.2     1  ZINC001083519372   -0.3100
     22 N22        -9.7538    1.2804   64.0812 N.pl3   1  ZINC001083519372   -0.3100
     23 C23        -7.3572   -0.9330   58.9116 C.3     1  ZINC001083519372    0.0900
     24 H24        -6.6032   -0.2585   58.5059 H       1  ZINC001083519372    0.0800
     25 O25        -6.7617   -1.8392   59.8422 O.3     1  ZINC001083519372   -0.5600
     26 C26        -8.0479   -1.7085   57.7745 C.3     1  ZINC001083519372    0.0100
     27 N27       -11.9063   -1.2344   55.8425 N.2     1  ZINC001083519372   -0.4800
     28 C28       -13.1813   -0.9763   55.7772 C.2     1  ZINC001083519372    0.1700
     29 O29       -13.7877   -1.5297   56.8359 O.3     1  ZINC001083519372   -0.2000
     30 H30       -12.4576   -1.2398   60.1069 H       1  ZINC001083519372    0.0600
     31 H31       -14.2041   -1.3050   59.7698 H       1  ZINC001083519372    0.0600
     32 H32       -13.4786   -2.4430   60.9304 H       1  ZINC001083519372    0.0700
     33 H33       -12.1784   -3.4862   59.0947 H       1  ZINC001083519372    0.1000
     34 H34       -15.1576   -3.2238   58.4845 H       1  ZINC001083519372    0.0600
     35 H35       -14.0903   -4.5255   57.9060 H       1  ZINC001083519372    0.0600
     36 H36       -14.4321   -4.3617   59.6452 H       1  ZINC001083519372    0.0700
     37 H37       -10.4632   -3.1297   58.2651 H       1  ZINC001083519372    0.0900
     38 H38        -9.8503   -3.0157   56.5979 H       1  ZINC001083519372    0.0600
     39 H39       -10.6379   -0.2641   59.2314 H       1  ZINC001083519372    0.1000
     40 H40        -9.8967   -1.7798   59.8401 H       1  ZINC001083519372    0.0600
     41 H41        -7.7710   -0.7996   61.4774 H       1  ZINC001083519372    0.4300
     42 H42        -6.7613    0.0601   63.2036 H       1  ZINC001083519372    0.1800
     43 H43        -6.5192    0.0928   65.6752 H       1  ZINC001083519372    0.1900
     44 H44       -10.9448    1.8914   67.0591 H       1  ZINC001083519372    0.1700
     45 H45       -12.6219    2.4439   65.0842 H       1  ZINC001083519372    0.2000
     46 H46        -6.2089   -2.5180   59.4314 H       1  ZINC001083519372    0.3900
     47 H47        -7.9424   -2.7809   57.9389 H       1  ZINC001083519372    0.0700
     48 H48        -7.6085   -1.4320   56.8161 H       1  ZINC001083519372    0.0900
     49 H49       -13.6696   -0.4127   54.9961 H       1  ZINC001083519372    0.2500
@<TRIPOS>BOND
     1     1     2    1
     2     1    30    1
     3     1    31    1
     4     1    32    1
     5     2     3    1
     6     2     4    1
     7     2    33    1
     8     3    34    1
     9     3    35    1
    10     3    36    1
    11     4    29    1
    12     4     5    2
    13     5     6    1
    14     5    27    1
    15     6     7    1
    16     6    37    1
    17     6    38    1
    18     7    26    1
    19     7     8    1
    20     8     9    1
    21     8    39    1
    22     8    40    1
    23     9    10    1
    24     9    11    1
    25     9    23    1
    26    11    12   am
    27    11    41    1
    28    12    13    2
    29    12    14    1
    30    14    22    1
    31    14    15    2
    32    15    16    1
    33    15    42    1
    34    16    17    2
    35    16    43    1
    36    17    18    1
    37    18    22    1
    38    18    19    2
    39    19    20    1
    40    19    44    1
    41    20    21    2
    42    20    45    1
    43    21    22    1
    44    23    24    1
    45    23    25    1
    46    23    26    1
    47    25    46    1
    48    26    47    1
    49    26    48    1
    50    27    28    2
    51    28    29    1
    52    28    49    1
@<TRIPOS>SUBSTRUCTURE
     1 ZINC001083519372        1 TEMP              0 ****  ****    0 ROOT


##########                                Name:    ZINC000564088286
##########                DOCK_Rotatable_Bonds:                   6
##########                         Heavy_Atoms:                  25
##########                    Molecular_Weight:             398.934
##########                DOCK_Rotatable_Bonds:                   6
##########                       Formal_Charge:               -0.05
##########                     HBond_Acceptors:                   8
##########                        HBond_Donors:                   1
##########                         Heavy_Atoms:                  25
##########                          Grid_Score:          -32.188114
##########                     Grid_vdw_energy:          -31.280016
##########                      Grid_es_energy:           -0.908097
##########           Internal_energy_repulsive:           11.327739

@<TRIPOS>MOLECULE
ZINC000564088286
 44 46 1 0 0
SMALL
USER_CHARGES


@<TRIPOS>ATOM
      1 C1        -11.0628    4.5305   48.4861 C.3     1  ZINC000564088286   -0.1600
      2 C2         -9.9565    4.6255   49.5388 C.3     1  ZINC000564088286    0.1100
      3 N3         -8.7487    3.9641   49.0389 N.am    1  ZINC000564088286   -1.1200
      4 S4         -7.5330    3.5578   50.0875 S.o2    1  ZINC000564088286    2.7000
      5 O5         -6.5885    2.8082   49.3355 O.2     1  ZINC000564088286   -0.9600
      6 O6         -7.1983    4.7449   50.7932 O.2     1  ZINC000564088286   -0.9600
      7 C7         -8.2165    2.4493   51.2742 C.ar    1  ZINC000564088286   -0.6800
      8 C8         -7.9443    1.0963   51.1933 C.ar    1  ZINC000564088286   -0.0200
      9 C9         -8.4806    0.2266   52.1244 C.ar    1  ZINC000564088286   -0.1300
     10 C10        -9.2886    0.7098   53.1367 C.ar    1  ZINC000564088286   -0.0100
     11 C11        -9.8736   -0.2385   54.1513 C.3     1  ZINC000564088286   -0.1100
     12 C12        -8.9515   -0.3344   55.3394 C.2     1  ZINC000564088286    0.5200
     13 O13        -8.0316    0.4471   55.4576 O.2     1  ZINC000564088286   -0.5200
     14 N14        -9.1491   -1.2884   56.2706 N.am    1  ZINC000564088286   -0.6200
     15 C15        -8.2611   -1.3995   57.4376 C.3     1  ZINC000564088286    0.1200
     16 C16        -9.0745   -1.0985   58.7002 C.3     1  ZINC000564088286   -0.0700
     17 C17       -10.3898   -1.8451   58.6313 C.2     1  ZINC000564088286   -0.1600
     18 C18       -10.9333   -2.3532   57.5094 C.2     1  ZINC000564088286   -0.1200
     19 C19       -12.1557   -2.9864   57.7140 C.2     1  ZINC000564088286   -0.1100
     20 C20       -12.5929   -3.0004   58.9705 C.2     1  ZINC000564088286   -0.1500
     21 Cl21      -14.0785   -3.7219   59.5053 Cl      1  ZINC000564088286   -0.0100
     22 S22       -11.4361   -2.1773   60.0057 S.3     1  ZINC000564088286    0.1600
     23 C23       -10.2616   -2.2413   56.1498 C.3     1  ZINC000564088286    0.1700
     24 C24        -9.5597    2.0628   53.2182 C.ar    1  ZINC000564088286   -0.1300
     25 C25        -9.0203    2.9331   52.2895 C.ar    1  ZINC000564088286   -0.0200
     26 H26       -10.7343    5.0191   47.5688 H       1  ZINC000564088286    0.0600
     27 H27       -11.2807    3.4824   48.2816 H       1  ZINC000564088286    0.0600
     28 H28       -11.9615    5.0226   48.8581 H       1  ZINC000564088286    0.0700
     29 H29        -9.7386    5.6737   49.7433 H       1  ZINC000564088286    0.0800
     30 H30       -10.2851    4.1370   50.4562 H       1  ZINC000564088286    0.0700
     31 H31        -8.6611    3.7640   48.0938 H       1  ZINC000564088286    0.4200
     32 H32        -7.3130    0.7189   50.4026 H       1  ZINC000564088286    0.1400
     33 H33        -8.2684   -0.8305   52.0608 H       1  ZINC000564088286    0.1300
     34 H34       -10.8465    0.1310   54.4754 H       1  ZINC000564088286    0.1100
     35 H35        -9.9908   -1.2246   53.7018 H       1  ZINC000564088286    0.1100
     36 H36        -7.8567   -2.4101   57.4949 H       1  ZINC000564088286    0.0800
     37 H37        -7.4463   -0.6811   57.3472 H       1  ZINC000564088286    0.1100
     38 H38        -8.5169   -1.4229   59.5789 H       1  ZINC000564088286    0.0900
     39 H39        -9.2663   -0.0274   58.7637 H       1  ZINC000564088286    0.0900
     40 H40       -12.7130   -3.4366   56.9059 H       1  ZINC000564088286    0.1500
     41 H41       -10.9793   -1.8829   55.4118 H       1  ZINC000564088286    0.1000
     42 H42        -9.8752   -3.2146   55.8477 H       1  ZINC000564088286    0.0900
     43 H43       -10.1907    2.4403   54.0092 H       1  ZINC000564088286    0.1300
     44 H44        -9.2321    3.9901   52.3532 H       1  ZINC000564088286    0.1400
@<TRIPOS>BOND
     1     1     2    1
     2     1    26    1
     3     1    27    1
     4     1    28    1
     5     2     3    1
     6     2    29    1
     7     2    30    1
     8     3     4   am
     9     3    31    1
    10     4     5    2
    11     4     6    2
    12     4     7    1
    13     7    25   ar
    14     7     8   ar
    15     8     9   ar
    16     8    32    1
    17     9    10   ar
    18     9    33    1
    19    10    11    1
    20    10    24   ar
    21    11    12    1
    22    11    34    1
    23    11    35    1
    24    12    13    2
    25    12    14   am
    26    14    23    1
    27    14    15    1
    28    15    16    1
    29    15    36    1
    30    15    37    1
    31    16    17    1
    32    16    38    1
    33    16    39    1
    34    17    22    1
    35    17    18    2
    36    18    19    1
    37    18    23    1
    38    19    20    2
    39    19    40    1
    40    20    21    1
    41    20    22    1
    42    23    41    1
    43    23    42    1
    44    24    25   ar
    45    24    43    1
    46    25    44    1
@<TRIPOS>SUBSTRUCTURE
     1 ZINC000564088286        1 TEMP              0 ****  ****    0 ROOT


##########                                Name:    ZINC001573443776
##########                DOCK_Rotatable_Bonds:                   8
##########                         Heavy_Atoms:                  28
##########                    Molecular_Weight:             386.457
##########                DOCK_Rotatable_Bonds:                   8
##########                       Formal_Charge:          0.00999954
##########                     HBond_Acceptors:                  10
##########                        HBond_Donors:                   3
##########                         Heavy_Atoms:                  28
##########                          Grid_Score:          -32.176781
##########                     Grid_vdw_energy:          -30.943069
##########                      Grid_es_energy:           -1.233713
##########           Internal_energy_repulsive:           32.896381

@<TRIPOS>MOLECULE
ZINC001573443776
 54 56 1 0 0
SMALL
USER_CHARGES


@<TRIPOS>ATOM
      1 C1        -13.5890   -3.2857   56.6843 C.3     1  ZINC001573443776   -0.1800
      2 C2        -13.7283   -3.0154   58.1603 C.2     1  ZINC001573443776    0.5100
      3 O3        -14.7817   -3.2343   58.7202 O.2     1  ZINC001573443776   -0.5400
      4 N4        -12.6822   -2.5304   58.8581 N.am    1  ZINC001573443776   -0.6100
      5 C5        -12.8026   -2.2618   60.2976 C.3     1  ZINC001573443776    0.1100
      6 C6        -12.3745   -0.8158   60.5669 C.3     1  ZINC001573443776   -0.1300
      7 C7        -10.9709   -0.5897   60.0005 C.3     1  ZINC001573443776   -0.1000
      8 C8        -10.9874   -0.8145   58.4868 C.3     1  ZINC001573443776   -0.1200
      9 H9        -11.7012   -0.1321   58.0253 H       1  ZINC001573443776    0.1000
     10 C10        -9.6123   -0.5593   57.9254 C.2     1  ZINC001573443776    0.5200
     11 O11        -9.3652   -0.8453   56.7730 O.2     1  ZINC001573443776   -0.5300
     12 N12        -8.6573   -0.0133   58.7040 N.am    1  ZINC001573443776   -0.7300
     13 C13        -7.3211    0.2363   58.1576 C.3     1  ZINC001573443776    0.1100
     14 C14        -7.2095    1.7019   57.7325 C.3     1  ZINC001573443776    0.1400
     15 H15        -8.0060    1.9370   57.0266 H       1  ZINC001573443776    0.0900
     16 C16        -7.3373    2.6012   58.9637 C.3     1  ZINC001573443776   -0.1700
     17 N17        -5.9099    1.9280   57.0954 N.pl3   1  ZINC001573443776   -0.7200
     18 C18        -5.8292    2.0801   55.7169 C.ar    1  ZINC001573443776    0.4300
     19 C19        -4.6434    2.5305   55.1436 C.ar    1  ZINC001573443776   -0.2500
     20 C20        -4.5713    2.6787   53.7724 C.ar    1  ZINC001573443776    0.0100
     21 C21        -5.7016    2.3676   53.0091 C.ar    1  ZINC001573443776   -0.1400
     22 C22        -5.6741    2.5098   51.5319 C.2     1  ZINC001573443776    0.2400
     23 N23        -6.2160    3.4811   50.8241 N.2     1  ZINC001573443776   -0.3000
     24 N24        -5.9736    3.2454   49.5806 N.pl3   1  ZINC001573443776   -0.2300
     25 N25        -5.2956    2.1559   49.4778 N.2     1  ZINC001573443776   -0.0500
     26 N26        -5.0885    1.6786   50.6581 N.2     1  ZINC001573443776   -0.2700
     27 C27        -6.8520    1.9226   53.6535 C.ar    1  ZINC001573443776    0.2300
     28 C28        -8.0768    1.5840   52.8434 C.3     1  ZINC001573443776   -0.1200
     29 N29        -6.8799    1.7895   54.9643 N.ar    1  ZINC001573443776   -0.5400
     30 C30       -11.3981   -2.2658   58.1951 C.3     1  ZINC001573443776    0.1200
     31 H31       -13.9420   -2.4213   56.1218 H       1  ZINC001573443776    0.0900
     32 H32       -12.5418   -3.4713   56.4460 H       1  ZINC001573443776    0.0800
     33 H33       -14.1829   -4.1599   56.4175 H       1  ZINC001573443776    0.1000
     34 H34       -13.8376   -2.4007   60.6100 H       1  ZINC001573443776    0.1000
     35 H35       -12.1570   -2.9432   60.8517 H       1  ZINC001573443776    0.0700
     36 H36       -13.0752   -0.1333   60.0859 H       1  ZINC001573443776    0.0700
     37 H37       -12.3671   -0.6327   61.6414 H       1  ZINC001573443776    0.0800
     38 H38       -10.6539    0.4315   60.2125 H       1  ZINC001573443776    0.0800
     39 H39       -10.2752   -1.2891   60.4640 H       1  ZINC001573443776    0.0700
     40 H40        -8.8545    0.2144   59.6259 H       1  ZINC001573443776    0.4000
     41 H41        -6.5711    0.0207   58.9186 H       1  ZINC001573443776    0.0900
     42 H42        -7.1562   -0.4064   57.2927 H       1  ZINC001573443776    0.0800
     43 H43        -8.3042    2.4329   59.4378 H       1  ZINC001573443776    0.0700
     44 H44        -6.5407    2.3660   59.6696 H       1  ZINC001573443776    0.0700
     45 H45        -7.2579    3.6452   58.6609 H       1  ZINC001573443776    0.0700
     46 H46        -5.1057    1.9714   57.6360 H       1  ZINC001573443776    0.4100
     47 H47        -3.7901    2.7618   55.7638 H       1  ZINC001573443776    0.1400
     48 H48        -3.6641    3.0266   53.3009 H       1  ZINC001573443776    0.1400
     49 H49        -6.2577    3.8015   48.8383 H       1  ZINC001573443776    0.4800
     50 H50        -8.0459    0.5318   52.5605 H       1  ZINC001573443776    0.0800
     51 H51        -8.9699    1.7740   53.4386 H       1  ZINC001573443776    0.0800
     52 H52        -8.1005    2.2012   51.9454 H       1  ZINC001573443776    0.1100
     53 H53       -10.6363   -2.9451   58.5778 H       1  ZINC001573443776    0.0800
     54 H54       -11.5079   -2.4054   57.1196 H       1  ZINC001573443776    0.0900
@<TRIPOS>BOND
     1     1     2    1
     2     1    31    1
     3     1    32    1
     4     1    33    1
     5     2     3    2
     6     2     4   am
     7     4    30    1
     8     4     5    1
     9     5     6    1
    10     5    34    1
    11     5    35    1
    12     6     7    1
    13     6    36    1
    14     6    37    1
    15     7     8    1
    16     7    38    1
    17     7    39    1
    18     8     9    1
    19     8    10    1
    20     8    30    1
    21    10    11    2
    22    10    12   am
    23    12    13    1
    24    12    40    1
    25    13    14    1
    26    13    41    1
    27    13    42    1
    28    14    15    1
    29    14    16    1
    30    14    17    1
    31    16    43    1
    32    16    44    1
    33    16    45    1
    34    17    18    1
    35    17    46    1
    36    18    29   ar
    37    18    19   ar
    38    19    20   ar
    39    19    47    1
    40    20    21   ar
    41    20    48    1
    42    21    22    1
    43    21    27   ar
    44    22    26    1
    45    22    23    2
    46    23    24    1
    47    24    25    1
    48    24    49    1
    49    25    26    2
    50    27    28    1
    51    27    29   ar
    52    28    50    1
    53    28    51    1
    54    28    52    1
    55    30    53    1
    56    30    54    1
@<TRIPOS>SUBSTRUCTURE
     1 ZINC001573443776        1 TEMP              0 ****  ****    0 ROOT


##########                                Name:    ZINC000477589488
##########                DOCK_Rotatable_Bonds:                   6
##########                         Heavy_Atoms:                  32
##########                    Molecular_Weight:             423.517
##########                DOCK_Rotatable_Bonds:                   6
##########                       Formal_Charge:        -8.19564e-07
##########                     HBond_Acceptors:                   6
##########                        HBond_Donors:                   1
##########                         Heavy_Atoms:                  32
##########                          Grid_Score:          -32.149220
##########                     Grid_vdw_energy:          -30.228931
##########                      Grid_es_energy:           -1.920289
##########           Internal_energy_repulsive:           20.375971

@<TRIPOS>MOLECULE
ZINC000477589488
 57 61 1 0 0
SMALL
USER_CHARGES


@<TRIPOS>ATOM
      1 O1        -12.4815   -0.9126   54.5599 O.2     1  ZINC000477589488   -0.5800
      2 C2        -11.7001   -0.0033   54.7622 C.2     1  ZINC000477589488    0.7100
      3 N3        -10.7514   -0.1284   55.7112 N.am    1  ZINC000477589488   -0.7400
      4 C4        -10.6654   -1.3579   56.5033 C.3     1  ZINC000477589488    0.2500
      5 H5        -10.7493   -2.2216   55.8437 H       1  ZINC000477589488    0.1100
      6 C6        -11.7850   -1.3853   57.5116 C.ar    1  ZINC000477589488   -0.0900
      7 C7        -12.8240   -2.2855   57.3663 C.ar    1  ZINC000477589488   -0.1000
      8 C8        -13.8510   -2.3107   58.2913 C.ar    1  ZINC000477589488   -0.1200
      9 C9        -13.8388   -1.4360   59.3618 C.ar    1  ZINC000477589488   -0.1200
     10 C10       -12.7993   -0.5365   59.5075 C.ar    1  ZINC000477589488   -0.1200
     11 C11       -11.7700   -0.5142   58.5848 C.ar    1  ZINC000477589488   -0.1000
     12 C12        -9.3413   -1.4011   57.2215 C.ar    1  ZINC000477589488   -0.0700
     13 C13        -8.8313   -2.6238   57.6896 C.ar    1  ZINC000477589488   -0.0400
     14 C14        -9.5334   -3.8269   57.5028 C.ar    1  ZINC000477589488   -0.1100
     15 C15        -9.0084   -4.9924   57.9695 C.ar    1  ZINC000477589488   -0.1100
     16 C16        -7.7823   -5.0126   58.6323 C.ar    1  ZINC000477589488   -0.1100
     17 C17        -7.0746   -3.8675   58.8318 C.ar    1  ZINC000477589488   -0.1100
     18 C18        -7.5842   -2.6444   58.3631 C.ar    1  ZINC000477589488   -0.0500
     19 C19        -6.8823   -1.4418   58.5498 C.ar    1  ZINC000477589488   -0.1000
     20 C20        -7.4069   -0.2761   58.0818 C.ar    1  ZINC000477589488   -0.1100
     21 C21        -8.6304   -0.2565   57.4154 C.ar    1  ZINC000477589488   -0.1100
     22 N22       -11.7793    1.1278   54.0336 N.am    1  ZINC000477589488   -0.6300
     23 C23       -10.8367    2.2352   54.2536 C.3     1  ZINC000477589488    0.1300
     24 C24       -10.2336    2.6367   52.9033 C.3     1  ZINC000477589488    0.0500
     25 N25       -11.3164    2.9222   51.9526 N.3     1  ZINC000477589488   -0.4700
     26 C26       -10.8132    3.4459   50.7668 C.ar    1  ZINC000477589488    0.2500
     27 C27       -11.6833    3.8662   49.7616 C.ar    1  ZINC000477589488   -0.1300
     28 C28       -11.1314    4.3807   48.5989 C.ar    1  ZINC000477589488   -0.0900
     29 C29        -9.7483    4.4459   48.5066 C.ar    1  ZINC000477589488    0.0200
     30 N30        -9.0001    4.0253   49.5072 N.ar    1  ZINC000477589488   -0.2200
     31 N31        -9.5043    3.5529   50.5888 N.ar    1  ZINC000477589488   -0.2800
     32 C32       -12.1300    1.7262   51.6964 C.3     1  ZINC000477589488    0.0400
     33 C33       -12.8069    1.2850   52.9931 C.3     1  ZINC000477589488    0.1200
     34 H34       -10.1255    0.5954   55.8698 H       1  ZINC000477589488    0.3900
     35 H35       -12.8336   -2.9688   56.5301 H       1  ZINC000477589488    0.1100
     36 H36       -14.6631   -3.0134   58.1775 H       1  ZINC000477589488    0.1200
     37 H37       -14.6416   -1.4552   60.0839 H       1  ZINC000477589488    0.1200
     38 H38       -12.7899    0.1471   60.3435 H       1  ZINC000477589488    0.1200
     39 H39       -10.9579    0.1886   58.6987 H       1  ZINC000477589488    0.1200
     40 H40       -10.4849   -3.8265   56.9917 H       1  ZINC000477589488    0.1300
     41 H41        -9.5499   -5.9154   57.8246 H       1  ZINC000477589488    0.1300
     42 H42        -7.3882   -5.9512   58.9931 H       1  ZINC000477589488    0.1300
     43 H43        -6.1262   -3.8985   59.3476 H       1  ZINC000477589488    0.1300
     44 H44        -5.9316   -1.4421   59.0623 H       1  ZINC000477589488    0.1300
     45 H45        -6.8654    0.6470   58.2270 H       1  ZINC000477589488    0.1300
     46 H46        -9.0241    0.6819   57.0536 H       1  ZINC000477589488    0.1200
     47 H47       -11.3648    3.0850   54.6860 H       1  ZINC000477589488    0.0800
     48 H48       -10.0432    1.9121   54.9275 H       1  ZINC000477589488    0.1100
     49 H49        -9.6171    3.5265   53.0304 H       1  ZINC000477589488    0.1000
     50 H50        -9.6204    1.8203   52.5217 H       1  ZINC000477589488    0.0600
     51 H51       -12.7538    3.7928   49.8850 H       1  ZINC000477589488    0.1500
     52 H52       -11.7592    4.7205   47.7885 H       1  ZINC000477589488    0.1500
     53 H53        -9.2848    4.8408   47.6147 H       1  ZINC000477589488    0.1700
     54 H54       -12.8887    1.9558   50.9483 H       1  ZINC000477589488    0.1000
     55 H55       -11.4904    0.9225   51.3316 H       1  ZINC000477589488    0.0600
     56 H56       -13.3180    0.3354   52.8345 H       1  ZINC000477589488    0.0800
     57 H57       -13.5249    2.0424   53.3074 H       1  ZINC000477589488    0.0900
@<TRIPOS>BOND
     1     1     2    2
     2     2     3   am
     3     2    22   am
     4     3     4    1
     5     3    34    1
     6     4     5    1
     7     4     6    1
     8     4    12    1
     9     6    11   ar
    10     6     7   ar
    11     7     8   ar
    12     7    35    1
    13     8     9   ar
    14     8    36    1
    15     9    10   ar
    16     9    37    1
    17    10    11   ar
    18    10    38    1
    19    11    39    1
    20    12    21   ar
    21    12    13   ar
    22    13    18   ar
    23    13    14   ar
    24    14    15   ar
    25    14    40    1
    26    15    16   ar
    27    15    41    1
    28    16    17   ar
    29    16    42    1
    30    17    18   ar
    31    17    43    1
    32    18    19   ar
    33    19    20   ar
    34    19    44    1
    35    20    21   ar
    36    20    45    1
    37    21    46    1
    38    22    33    1
    39    22    23    1
    40    23    24    1
    41    23    47    1
    42    23    48    1
    43    24    25    1
    44    24    49    1
    45    24    50    1
    46    25    26    1
    47    25    32    1
    48    26    31   ar
    49    26    27   ar
    50    27    28   ar
    51    27    51    1
    52    28    29   ar
    53    28    52    1
    54    29    30   ar
    55    29    53    1
    56    30    31   ar
    57    32    33    1
    58    32    54    1
    59    32    55    1
    60    33    56    1
    61    33    57    1
@<TRIPOS>SUBSTRUCTURE
     1 ZINC000477589488        1 TEMP              0 ****  ****    0 ROOT


##########                                Name:    ZINC000492313853
##########                DOCK_Rotatable_Bonds:                   8
##########                         Heavy_Atoms:                  30
##########                    Molecular_Weight:             418.422
##########                DOCK_Rotatable_Bonds:                   8
##########                       Formal_Charge:          -0.0100008
##########                     HBond_Acceptors:                  10
##########                        HBond_Donors:                   2
##########                         Heavy_Atoms:                  30
##########                          Grid_Score:          -32.146370
##########                     Grid_vdw_energy:          -27.256390
##########                      Grid_es_energy:           -4.889979
##########           Internal_energy_repulsive:           12.382161

@<TRIPOS>MOLECULE
ZINC000492313853
 51 53 1 0 0
SMALL
USER_CHARGES


@<TRIPOS>ATOM
      1 C1         -9.0052   -4.1063   57.9836 C.3     1  ZINC000492313853    0.0900
      2 N2        -10.0337   -3.0662   57.9027 N.pl3   1  ZINC000492313853   -0.6200
      3 C3        -11.2953   -3.3360   57.2087 C.3     1  ZINC000492313853    0.1000
      4 C4         -9.8126   -1.8232   58.4846 C.ar    1  ZINC000492313853    0.4100
      5 C5        -10.7956   -0.8420   58.4085 C.ar    1  ZINC000492313853   -0.2400
      6 C6        -10.5625    0.3903   58.9924 C.ar    1  ZINC000492313853   -0.0100
      7 C7         -9.3498    0.6004   59.6350 C.ar    1  ZINC000492313853   -0.2300
      8 C8         -9.0529    1.9269   60.2855 C.3     1  ZINC000492313853    0.2000
      9 N9         -7.6659    2.3077   60.0074 N.am    1  ZINC000492313853   -0.7300
     10 C10        -7.2888    2.6073   58.7486 C.2     1  ZINC000492313853    0.7100
     11 O11        -8.1001    2.5630   57.8440 O.2     1  ZINC000492313853   -0.5600
     12 N12        -6.0123    2.9560   58.4924 N.am    1  ZINC000492313853   -0.6600
     13 C13        -5.6216    3.2646   57.1892 C.2     1  ZINC000492313853    0.3300
     14 C14        -5.6249    2.4145   56.1290 C.2     1  ZINC000492313853   -0.2600
     15 C15        -5.1587    3.1247   55.0069 C.2     1  ZINC000492313853    0.1200
     16 C16        -5.0010    2.5799   53.6354 C.ar    1  ZINC000492313853   -0.0100
     17 C17        -3.7307    2.3035   53.1348 C.ar    1  ZINC000492313853   -0.0600
     18 C18        -3.5898    1.7965   51.8586 C.ar    1  ZINC000492313853   -0.1200
     19 C19        -4.7068    1.5628   51.0775 C.ar    1  ZINC000492313853   -0.0700
     20 C20        -5.9707    1.8353   51.5696 C.ar    1  ZINC000492313853   -0.1900
     21 C21        -7.1833    1.5776   50.7128 C.3     1  ZINC000492313853    0.5100
     22 F22        -8.3307    2.0108   51.3861 F       1  ZINC000492313853   -0.1800
     23 F23        -7.0590    2.2755   49.5067 F       1  ZINC000492313853   -0.1800
     24 F24        -7.2862    0.2073   50.4503 F       1  ZINC000492313853   -0.1800
     25 C25        -6.1234    2.3375   52.8459 C.ar    1  ZINC000492313853   -0.0400
     26 N26        -4.8869    4.3557   55.3849 N.2     1  ZINC000492313853   -0.2700
     27 N27        -5.1749    4.4705   56.7506 N.pl3   1  ZINC000492313853   -0.3900
     28 C28        -5.0138    5.6770   57.5659 C.3     1  ZINC000492313853    0.1000
     29 C29        -8.4190   -0.4186   59.6725 C.ar    1  ZINC000492313853    0.1700
     30 N30        -8.6703   -1.5859   59.1111 N.ar    1  ZINC000492313853   -0.5400
     31 H31        -8.3388   -4.0259   57.1248 H       1  ZINC000492313853    0.0600
     32 H32        -8.4314   -3.9793   58.9017 H       1  ZINC000492313853    0.0700
     33 H33        -9.4799   -5.0875   57.9847 H       1  ZINC000492313853    0.0700
     34 H34       -11.2860   -4.3548   56.8209 H       1  ZINC000492313853    0.0700
     35 H35       -12.1254   -3.2202   57.9054 H       1  ZINC000492313853    0.0600
     36 H36       -11.4132   -2.6341   56.3831 H       1  ZINC000492313853    0.0600
     37 H37       -11.7278   -1.0394   57.9003 H       1  ZINC000492313853    0.1300
     38 H38       -11.3070    1.1715   58.9490 H       1  ZINC000492313853    0.1400
     39 H39        -9.7252    2.6862   59.8858 H       1  ZINC000492313853    0.0800
     40 H40        -9.1979    1.8440   61.3626 H       1  ZINC000492313853    0.0800
     41 H41        -7.0189    2.3441   60.7292 H       1  ZINC000492313853    0.4000
     42 H42        -5.3654    2.9926   59.2143 H       1  ZINC000492313853    0.4100
     43 H43        -5.9300    1.3786   56.1449 H       1  ZINC000492313853    0.1800
     44 H44        -2.8578    2.4861   53.7438 H       1  ZINC000492313853    0.1400
     45 H45        -2.6055    1.5822   51.4694 H       1  ZINC000492313853    0.1400
     46 H46        -4.5922    1.1662   50.0794 H       1  ZINC000492313853    0.1400
     47 H47        -7.1105    2.5499   53.2292 H       1  ZINC000492313853    0.1400
     48 H48        -5.9356    6.2580   57.5412 H       1  ZINC000492313853    0.0800
     49 H49        -4.7906    5.3933   58.5944 H       1  ZINC000492313853    0.0800
     50 H50        -4.1952    6.2772   57.1687 H       1  ZINC000492313853    0.1000
     51 H51        -7.4743   -0.2595   60.1713 H       1  ZINC000492313853    0.1600
@<TRIPOS>BOND
     1     1     2    1
     2     1    31    1
     3     1    32    1
     4     1    33    1
     5     2     3    1
     6     2     4    1
     7     3    34    1
     8     3    35    1
     9     3    36    1
    10     4    30   ar
    11     4     5   ar
    12     5     6   ar
    13     5    37    1
    14     6     7   ar
    15     6    38    1
    16     7     8    1
    17     7    29   ar
    18     8     9    1
    19     8    39    1
    20     8    40    1
    21     9    10   am
    22     9    41    1
    23    10    11    2
    24    10    12   am
    25    12    13    1
    26    12    42    1
    27    13    27    1
    28    13    14    2
    29    14    15    1
    30    14    43    1
    31    15    16    1
    32    15    26    2
    33    16    25   ar
    34    16    17   ar
    35    17    18   ar
    36    17    44    1
    37    18    19   ar
    38    18    45    1
    39    19    20   ar
    40    19    46    1
    41    20    21    1
    42    20    25   ar
    43    21    22    1
    44    21    23    1
    45    21    24    1
    46    25    47    1
    47    26    27    1
    48    27    28    1
    49    28    48    1
    50    28    49    1
    51    28    50    1
    52    29    30   ar
    53    29    51    1
@<TRIPOS>SUBSTRUCTURE
     1 ZINC000492313853        1 TEMP              0 ****  ****    0 ROOT


##########                                Name:    ZINC000523153175
##########                DOCK_Rotatable_Bonds:                   9
##########                         Heavy_Atoms:                  30
##########                    Molecular_Weight:             413.603
##########                DOCK_Rotatable_Bonds:                   9
##########                       Formal_Charge:           0.0499987
##########                     HBond_Acceptors:                   5
##########                        HBond_Donors:                   1
##########                         Heavy_Atoms:                  30
##########                          Grid_Score:          -32.139153
##########                     Grid_vdw_energy:          -31.734228
##########                      Grid_es_energy:           -0.404923
##########           Internal_energy_repulsive:           30.335363

@<TRIPOS>MOLECULE
ZINC000523153175
 69 71 1 0 0
SMALL
USER_CHARGES


@<TRIPOS>ATOM
      1 C1         -9.0429    0.2800   63.8422 C.3     1  ZINC000523153175   -0.1500
      2 C2         -9.8594    0.8301   62.6710 C.3     1  ZINC000523153175   -0.0600
      3 C3         -9.5318    2.3113   62.4720 C.3     1  ZINC000523153175   -0.1400
      4 C4         -9.5166    0.0670   61.4175 C.ar    1  ZINC000523153175   -0.0800
      5 C5        -10.5182   -0.3126   60.5437 C.ar    1  ZINC000523153175   -0.1100
      6 C6        -10.2038   -1.0125   59.3938 C.ar    1  ZINC000523153175   -0.1100
      7 C7         -8.8876   -1.3325   59.1176 C.ar    1  ZINC000523153175   -0.0800
      8 C8         -8.5449   -2.0960   57.8643 C.3     1  ZINC000523153175   -0.0300
      9 H9         -7.4659   -2.2398   57.8101 H       1  ZINC000523153175    0.0800
     10 C10        -9.2403   -3.4586   57.8910 C.3     1  ZINC000523153175   -0.1500
     11 C11        -9.0164   -1.3067   56.6414 C.3     1  ZINC000523153175   -0.1300
     12 C12        -8.1614   -0.0767   56.4772 C.2     1  ZINC000523153175    0.5200
     13 O13        -7.2481    0.1341   57.2468 O.2     1  ZINC000523153175   -0.5300
     14 N14        -8.4116    0.7892   55.4751 N.am    1  ZINC000523153175   -0.6200
     15 C15        -7.5844    1.9916   55.2923 C.3     1  ZINC000523153175    0.1100
     16 C16        -7.1175    2.0440   53.8338 C.3     1  ZINC000523153175    0.0400
     17 N17        -8.2842    1.9517   52.9459 N.3     1  ZINC000523153175   -0.5100
     18 C18        -7.8984    2.1706   51.5454 C.3     1  ZINC000523153175    0.0600
     19 H19        -8.5788    1.6249   50.8916 H       1  ZINC000523153175    0.1100
     20 C20        -7.9708    3.6646   51.2239 C.3     1  ZINC000523153175   -0.1800
     21 C21        -6.4907    1.6778   51.3292 C.2     1  ZINC000523153175    0.5200
     22 O22        -6.2713    0.4883   51.2421 O.2     1  ZINC000523153175   -0.5200
     23 N23        -5.4756    2.5592   51.2328 N.am    1  ZINC000523153175   -0.7200
     24 C24        -4.1074    2.0803   51.0210 C.3     1  ZINC000523153175    0.1400
     25 C25        -3.8118    1.9762   49.5105 C.3     1  ZINC000523153175   -0.1300
     26 C26        -3.1083    3.3129   49.1680 C.3     1  ZINC000523153175   -0.1300
     27 C27        -2.2277    3.5654   50.4170 C.3     1  ZINC000523153175   -0.1300
     28 C28        -3.1001    3.0908   51.5974 C.3     1  ZINC000523153175   -0.1300
     29 C29        -8.9758    0.6658   53.1066 C.3     1  ZINC000523153175    0.0400
     30 C30        -9.5150    0.5537   54.5317 C.3     1  ZINC000523153175    0.1200
     31 C31        -7.8860   -0.9516   59.9906 C.ar    1  ZINC000523153175   -0.1100
     32 C32        -8.1999   -0.2483   61.1385 C.ar    1  ZINC000523153175   -0.1200
     33 H33        -9.2908    0.8319   64.7489 H       1  ZINC000523153175    0.0600
     34 H34        -9.2763   -0.7752   63.9838 H       1  ZINC000523153175    0.0600
     35 H35        -7.9800    0.3915   63.6282 H       1  ZINC000523153175    0.0600
     36 H36       -10.9224    0.7186   62.8849 H       1  ZINC000523153175    0.0800
     37 H37        -8.4688    2.4228   62.2580 H       1  ZINC000523153175    0.0600
     38 H38       -10.1133    2.7032   61.6375 H       1  ZINC000523153175    0.0600
     39 H39        -9.7797    2.8632   63.3787 H       1  ZINC000523153175    0.0600
     40 H40       -11.5466   -0.0626   60.7595 H       1  ZINC000523153175    0.1200
     41 H41       -10.9865   -1.3098   58.7115 H       1  ZINC000523153175    0.1200
     42 H42        -8.9925   -4.0108   56.9845 H       1  ZINC000523153175    0.0800
     43 H43        -8.9045   -4.0209   58.7623 H       1  ZINC000523153175    0.0600
     44 H44       -10.3194   -3.3147   57.9453 H       1  ZINC000523153175    0.0500
     45 H45        -8.9308   -1.9302   55.7514 H       1  ZINC000523153175    0.0900
     46 H46       -10.0564   -1.0106   56.7789 H       1  ZINC000523153175    0.0900
     47 H47        -8.1739    2.8796   55.5203 H       1  ZINC000523153175    0.0800
     48 H48        -6.7184    1.9441   55.9525 H       1  ZINC000523153175    0.0900
     49 H49        -6.5958    2.9838   53.6524 H       1  ZINC000523153175    0.0900
     50 H50        -6.4440    1.2099   53.6371 H       1  ZINC000523153175    0.0400
     51 H51        -7.2904    4.2103   51.8777 H       1  ZINC000523153175    0.0700
     52 H52        -7.6846    3.8270   50.1848 H       1  ZINC000523153175    0.0700
     53 H53        -8.9890    4.0211   51.3803 H       1  ZINC000523153175    0.0700
     54 H54        -5.6510    3.5106   51.3038 H       1  ZINC000523153175    0.4000
     55 H55        -3.9745    1.1083   51.4961 H       1  ZINC000523153175    0.0900
     56 H56        -3.1501    1.1340   49.3084 H       1  ZINC000523153175    0.0700
     57 H57        -4.7393    1.8777   48.9463 H       1  ZINC000523153175    0.0700
     58 H58        -2.4917    3.2073   48.2755 H       1  ZINC000523153175    0.0700
     59 H59        -3.8384    4.1125   49.0421 H       1  ZINC000523153175    0.0700
     60 H60        -1.3100    2.9799   50.3613 H       1  ZINC000523153175    0.0700
     61 H61        -1.9989    4.6267   50.5143 H       1  ZINC000523153175    0.0700
     62 H62        -3.6293    3.9375   52.0347 H       1  ZINC000523153175    0.0700
     63 H63        -2.4779    2.6089   52.3515 H       1  ZINC000523153175    0.0800
     64 H64        -9.8018    0.6060   52.3980 H       1  ZINC000523153175    0.1000
     65 H65        -8.2764   -0.1491   52.9201 H       1  ZINC000523153175    0.0400
     66 H66        -9.9276   -0.4428   54.6898 H       1  ZINC000523153175    0.1000
     67 H67       -10.2904    1.3033   54.6899 H       1  ZINC000523153175    0.0800
     68 H68        -6.8576   -1.2013   59.7746 H       1  ZINC000523153175    0.1200
     69 H69        -7.4173    0.0492   61.8206 H       1  ZINC000523153175    0.1200
@<TRIPOS>BOND
     1     1     2    1
     2     1    33    1
     3     1    34    1
     4     1    35    1
     5     2     3    1
     6     2     4    1
     7     2    36    1
     8     3    37    1
     9     3    38    1
    10     3    39    1
    11     4    32   ar
    12     4     5   ar
    13     5     6   ar
    14     5    40    1
    15     6     7   ar
    16     6    41    1
    17     7     8    1
    18     7    31   ar
    19     8     9    1
    20     8    10    1
    21     8    11    1
    22    10    42    1
    23    10    43    1
    24    10    44    1
    25    11    12    1
    26    11    45    1
    27    11    46    1
    28    12    13    2
    29    12    14   am
    30    14    30    1
    31    14    15    1
    32    15    16    1
    33    15    47    1
    34    15    48    1
    35    16    17    1
    36    16    49    1
    37    16    50    1
    38    17    18    1
    39    17    29    1
    40    18    19    1
    41    18    20    1
    42    18    21    1
    43    20    51    1
    44    20    52    1
    45    20    53    1
    46    21    22    2
    47    21    23   am
    48    23    24    1
    49    23    54    1
    50    24    28    1
    51    24    25    1
    52    24    55    1
    53    25    26    1
    54    25    56    1
    55    25    57    1
    56    26    27    1
    57    26    58    1
    58    26    59    1
    59    27    28    1
    60    27    60    1
    61    27    61    1
    62    28    62    1
    63    28    63    1
    64    29    30    1
    65    29    64    1
    66    29    65    1
    67    30    66    1
    68    30    67    1
    69    31    32   ar
    70    31    68    1
    71    32    69    1
@<TRIPOS>SUBSTRUCTURE
     1 ZINC000523153175        1 TEMP              0 ****  ****    0 ROOT


##########                                Name:    ZINC001579482641
##########                DOCK_Rotatable_Bonds:                   5
##########                         Heavy_Atoms:                  26
##########                    Molecular_Weight:             355.359
##########                DOCK_Rotatable_Bonds:                   5
##########                       Formal_Charge:                0.05
##########                     HBond_Acceptors:                  11
##########                        HBond_Donors:                   1
##########                         Heavy_Atoms:                  26
##########                          Grid_Score:          -32.108620
##########                     Grid_vdw_energy:          -25.976814
##########                      Grid_es_energy:           -6.131806
##########           Internal_energy_repulsive:           11.303065

@<TRIPOS>MOLECULE
ZINC001579482641
 43 46 1 0 0
SMALL
USER_CHARGES


@<TRIPOS>ATOM
      1 C1        -14.0661    1.7166   63.4412 C.3     1  ZINC001579482641    0.0300
      2 O2        -15.3912    1.9648   62.9018 O.3     1  ZINC001579482641   -0.3300
      3 C3        -15.5012    2.0425   61.5613 C.2     1  ZINC001579482641    0.5300
      4 O4        -16.3754    2.7224   61.0620 O.2     1  ZINC001579482641   -0.4900
      5 C5        -14.5587    1.3009   60.6985 C.ar    1  ZINC001579482641    0.0900
      6 C6        -13.4001    1.9317   60.2422 C.ar    1  ZINC001579482641   -0.0800
      7 C7        -12.5210    1.2331   59.4347 C.ar    1  ZINC001579482641   -0.1200
      8 C8        -12.8262   -0.0849   59.1037 C.ar    1  ZINC001579482641    0.1100
      9 N9        -11.9718   -0.8232   58.2962 N.3     1  ZINC001579482641   -0.4600
     10 C10       -11.7544   -0.1464   56.9921 C.3     1  ZINC001579482641    0.0400
     11 C11       -10.4394   -0.7835   56.4769 C.3     1  ZINC001579482641   -0.1100
     12 C12        -9.6052   -0.9466   57.7682 C.3     1  ZINC001579482641   -0.0100
     13 H13        -8.9145   -0.1109   57.8804 H       1  ZINC001579482641    0.0900
     14 C14        -8.8485   -2.2496   57.7408 C.2     1  ZINC001579482641    0.1800
     15 N15        -9.1844   -3.3255   57.0828 N.2     1  ZINC001579482641   -0.2600
     16 N16        -8.3113   -4.2475   57.2859 N.2     1  ZINC001579482641   -0.2900
     17 C17        -7.3786   -3.8016   58.0828 C.2     1  ZINC001579482641    0.1500
     18 N18        -7.6903   -2.5193   58.3901 N.pl3   1  ZINC001579482641   -0.4800
     19 C19        -6.9332   -1.6115   59.2557 C.3     1  ZINC001579482641    0.0700
     20 C20       -10.6338   -0.9474   58.9141 C.3     1  ZINC001579482641    0.0600
     21 C21       -14.0104   -0.6573   59.5985 C.ar    1  ZINC001579482641    0.2300
     22 C22       -14.3489   -2.0602   59.2543 C.2     1  ZINC001579482641    0.2100
     23 N23       -15.3115   -2.4632   58.4485 N.2     1  ZINC001579482641   -0.2600
     24 N24       -15.2808   -3.7510   58.4109 N.pl3   1  ZINC001579482641   -0.2300
     25 N25       -14.3299   -4.1768   59.1669 N.2     1  ZINC001579482641   -0.0500
     26 N26       -13.7317   -3.1649   59.6977 N.2     1  ZINC001579482641   -0.2000
     27 N27       -14.8220    0.0411   60.3716 N.ar    1  ZINC001579482641   -0.4000
     28 H28       -13.3942    2.5196   63.1383 H       1  ZINC001579482641    0.0700
     29 H29       -14.1182    1.6774   64.5293 H       1  ZINC001579482641    0.1100
     30 H30       -13.6912    0.7663   63.0609 H       1  ZINC001579482641    0.0700
     31 H31       -13.1924    2.9555   60.5167 H       1  ZINC001579482641    0.1600
     32 H32       -11.6182    1.6993   59.0687 H       1  ZINC001579482641    0.1600
     33 H33       -12.5770   -0.3555   56.3082 H       1  ZINC001579482641    0.1000
     34 H34       -11.6326    0.9278   57.1318 H       1  ZINC001579482641    0.0600
     35 H35       -10.6343   -1.7530   56.0185 H       1  ZINC001579482641    0.1000
     36 H36        -9.9374   -0.1176   55.7749 H       1  ZINC001579482641    0.0800
     37 H37        -6.5162   -4.3515   58.4296 H       1  ZINC001579482641    0.2200
     38 H38        -6.2067   -1.0611   58.6580 H       1  ZINC001579482641    0.0800
     39 H39        -7.6172   -0.9098   59.7331 H       1  ZINC001579482641    0.0900
     40 H40        -6.4125   -2.1883   60.0201 H       1  ZINC001579482641    0.0900
     41 H41       -10.4513   -0.1020   59.5775 H       1  ZINC001579482641    0.0600
     42 H42       -10.5677   -1.8814   59.4719 H       1  ZINC001579482641    0.1000
     43 H43       -15.8805   -4.3116   57.8941 H       1  ZINC001579482641    0.4800
@<TRIPOS>BOND
     1     1     2    1
     2     1    28    1
     3     1    29    1
     4     1    30    1
     5     2     3    1
     6     3     4    2
     7     3     5    1
     8     5    27   ar
     9     5     6   ar
    10     6     7   ar
    11     6    31    1
    12     7     8   ar
    13     7    32    1
    14     8     9    1
    15     8    21   ar
    16     9    20    1
    17     9    10    1
    18    10    11    1
    19    10    33    1
    20    10    34    1
    21    11    12    1
    22    11    35    1
    23    11    36    1
    24    12    13    1
    25    12    14    1
    26    12    20    1
    27    14    18    1
    28    14    15    2
    29    15    16    1
    30    16    17    2
    31    17    18    1
    32    17    37    1
    33    18    19    1
    34    19    38    1
    35    19    39    1
    36    19    40    1
    37    20    41    1
    38    20    42    1
    39    21    22    1
    40    21    27   ar
    41    22    26    1
    42    22    23    2
    43    23    24    1
    44    24    25    1
    45    24    43    1
    46    25    26    2
@<TRIPOS>SUBSTRUCTURE
     1 ZINC001579482641        1 TEMP              0 ****  ****    0 ROOT


##########                                Name:    ZINC000919225759
##########                DOCK_Rotatable_Bonds:                   4
##########                         Heavy_Atoms:                  27
##########                    Molecular_Weight:             375.295
##########                DOCK_Rotatable_Bonds:                   4
##########                       Formal_Charge:                0.04
##########                     HBond_Acceptors:                  11
##########                        HBond_Donors:                   0
##########                         Heavy_Atoms:                  27
##########                          Grid_Score:          -32.108433
##########                     Grid_vdw_energy:          -30.519394
##########                      Grid_es_energy:           -1.589040
##########           Internal_energy_repulsive:            8.869312

@<TRIPOS>MOLECULE
ZINC000919225759
 40 41 1 0 0
SMALL
USER_CHARGES


@<TRIPOS>ATOM
      1 C1        -13.0772   -0.7685   59.4570 C.3     1  ZINC000919225759   -0.1500
      2 C2        -11.8322   -1.5169   59.0554 C.ar    1  ZINC000919225759    0.0900
      3 C3        -10.5868   -0.8895   59.1217 C.ar    1  ZINC000919225759   -0.1200
      4 C4        -10.4844    0.5093   59.5857 C.2     1  ZINC000919225759    0.5200
      5 O5        -10.4389    1.4153   58.7780 O.2     1  ZINC000919225759   -0.4700
      6 O6        -10.4417    0.7799   60.9047 O.3     1  ZINC000919225759   -0.3400
      7 C7         -9.2679    0.3309   61.6320 C.3     1  ZINC000919225759    0.1400
      8 H8         -9.1683   -0.7498   61.5295 H       1  ZINC000919225759    0.1100
      9 C9         -8.0229    1.0139   61.0626 C.3     1  ZINC000919225759   -0.1700
     10 C10        -9.4136    0.6860   63.0893 C.ar    1  ZINC000919225759   -0.1000
     11 C11       -10.5435    1.3494   63.5292 C.ar    1  ZINC000919225759   -0.0400
     12 C12       -10.6772    1.6753   64.8662 C.ar    1  ZINC000919225759   -0.1100
     13 C13        -9.6813    1.3371   65.7628 C.ar    1  ZINC000919225759   -0.0500
     14 C14        -8.5515    0.6725   65.3229 C.ar    1  ZINC000919225759   -0.0400
     15 N15        -7.4847    0.3108   66.2831 N.pl3   1  ZINC000919225759    0.0300
     16 O16        -7.6022    0.5985   67.4608 O.2     1  ZINC000919225759   -0.1500
     17 O17        -6.4894   -0.2746   65.8956 O.2     1  ZINC000919225759   -0.1500
     18 C18        -8.4198    0.3430   63.9871 C.ar    1  ZINC000919225759   -0.0400
     19 C19        -9.4382   -1.5905   58.7481 C.ar    1  ZINC000919225759    0.0500
     20 C20        -9.5410   -2.8963   58.3164 C.ar    1  ZINC000919225759   -0.0600
     21 N21        -8.3246   -3.6410   57.9204 N.pl3   1  ZINC000919225759    0.0300
     22 O22        -7.2345   -3.1005   57.9760 O.2     1  ZINC000919225759   -0.1300
     23 O23        -8.4138   -4.7942   57.5388 O.2     1  ZINC000919225759   -0.1300
     24 C24       -10.7787   -3.5121   58.2529 C.ar    1  ZINC000919225759    0.0400
     25 C25       -11.9200   -2.8252   58.6266 C.ar    1  ZINC000919225759   -0.0500
     26 N26       -13.2395   -3.4922   58.5560 N.pl3   1  ZINC000919225759    0.0200
     27 O27       -13.4885   -4.2542   57.6390 O.2     1  ZINC000919225759   -0.1300
     28 O28       -14.0764   -3.2790   59.4149 O.2     1  ZINC000919225759   -0.1200
     29 H29       -13.1975   -0.8180   60.5392 H       1  ZINC000919225759    0.1200
     30 H30       -12.9904    0.2732   59.1483 H       1  ZINC000919225759    0.1200
     31 H31       -13.9439   -1.2197   58.9740 H       1  ZINC000919225759    0.0900
     32 H32        -8.1224    2.0944   61.1651 H       1  ZINC000919225759    0.0700
     33 H33        -7.1417    0.6768   61.6086 H       1  ZINC000919225759    0.0900
     34 H34        -7.9174    0.7571   60.0086 H       1  ZINC000919225759    0.0700
     35 H35       -11.3216    1.6137   62.8285 H       1  ZINC000919225759    0.1500
     36 H36       -11.5597    2.1943   65.2098 H       1  ZINC000919225759    0.1500
     37 H37        -9.7854    1.5922   66.8071 H       1  ZINC000919225759    0.1600
     38 H38        -7.5372   -0.1761   63.6434 H       1  ZINC000919225759    0.1600
     39 H39        -8.4717   -1.1110   58.7968 H       1  ZINC000919225759    0.1900
     40 H40       -10.8535   -4.5348   57.9138 H       1  ZINC000919225759    0.1900
@<TRIPOS>BOND
     1     1     2    1
     2     1    29    1
     3     1    30    1
     4     1    31    1
     5     2    25   ar
     6     2     3   ar
     7     3     4    1
     8     3    19   ar
     9     4     5    2
    10     4     6    1
    11     6     7    1
    12     7     8    1
    13     7     9    1
    14     7    10    1
    15     9    32    1
    16     9    33    1
    17     9    34    1
    18    10    18   ar
    19    10    11   ar
    20    11    12   ar
    21    11    35    1
    22    12    13   ar
    23    12    36    1
    24    13    14   ar
    25    13    37    1
    26    14    15    1
    27    14    18   ar
    28    15    16    2
    29    15    17    2
    30    18    38    1
    31    19    20   ar
    32    19    39    1
    33    20    21    1
    34    20    24   ar
    35    21    22    2
    36    21    23    2
    37    24    25   ar
    38    24    40    1
    39    25    26    1
    40    26    27    2
    41    26    28    2
@<TRIPOS>SUBSTRUCTURE
     1 ZINC000919225759        1 TEMP              0 ****  ****    0 ROOT


##########                                Name:    ZINC001090961577
##########                DOCK_Rotatable_Bonds:                   9
##########                         Heavy_Atoms:                  24
##########                    Molecular_Weight:             352.458
##########                DOCK_Rotatable_Bonds:                   9
##########                       Formal_Charge:                0.02
##########                     HBond_Acceptors:                   8
##########                        HBond_Donors:                   1
##########                         Heavy_Atoms:                  24
##########                          Grid_Score:          -32.103916
##########                     Grid_vdw_energy:          -30.913408
##########                      Grid_es_energy:           -1.190507
##########           Internal_energy_repulsive:            9.520267

@<TRIPOS>MOLECULE
ZINC001090961577
 48 49 1 0 0
SMALL
USER_CHARGES


@<TRIPOS>ATOM
      1 C1         -6.8371   -3.6607   58.7320 C.3     1  ZINC001090961577   -0.1400
      2 C2         -6.8581   -2.1706   58.3854 C.3     1  ZINC001090961577   -0.0900
      3 S3         -7.9691   -1.3003   59.5250 S.3     1  ZINC001090961577   -0.2700
      4 C4         -7.8377    0.4262   58.9843 C.3     1  ZINC001090961577   -0.0700
      5 C5         -8.2299    0.5299   57.5091 C.3     1  ZINC001090961577   -0.1200
      6 C6         -9.6790    0.1496   57.3466 C.2     1  ZINC001090961577    0.5400
      7 O7        -10.3884    0.0323   58.3233 O.2     1  ZINC001090961577   -0.5300
      8 N8        -10.1867   -0.0602   56.1159 N.am    1  ZINC001090961577   -0.6200
      9 C9        -11.5763   -0.4344   55.8145 C.3     1  ZINC001090961577    0.1100
     10 C10       -11.7006   -0.5370   54.2797 C.3     1  ZINC001090961577   -0.1100
     11 H11       -11.5833   -1.5697   53.9515 H       1  ZINC001090961577    0.0900
     12 C12       -13.0402    0.0306   53.8060 C.3     1  ZINC001090961577   -0.1400
     13 C13       -10.5211    0.3364   53.7764 C.3     1  ZINC001090961577    0.1500
     14 H14       -10.7922    1.3921   53.7687 H       1  ZINC001090961577    0.1200
     15 N15       -10.0747   -0.0979   52.4504 N.pl3   1  ZINC001090961577   -0.6700
     16 C16        -8.9252    0.4312   51.9023 C.ar    1  ZINC001090961577    0.5900
     17 N17        -7.9603   -0.3914   51.5114 N.ar    1  ZINC001090961577   -0.5700
     18 C18        -6.8452    0.0750   50.9823 C.ar    1  ZINC001090961577    0.2700
     19 C19        -6.6896    1.4603   50.8365 C.ar    1  ZINC001090961577   -0.3000
     20 C20        -5.4609    2.0259   50.2502 C.2     1  ZINC001090961577    0.5300
     21 O21        -5.5319    2.7742   49.2955 O.2     1  ZINC001090961577   -0.5100
     22 O22        -4.2591    1.7132   50.7730 O.3     1  ZINC001090961577   -0.3600
     23 C23        -4.0105    2.1208   52.1444 C.3     1  ZINC001090961577    0.0400
     24 C24        -7.7330    2.2937   51.2623 C.ar    1  ZINC001090961577    0.2600
     25 N25        -8.8186    1.7478   51.7764 N.ar    1  ZINC001090961577   -0.5700
     26 C26        -9.4424    0.0537   54.8484 C.3     1  ZINC001090961577    0.0900
     27 H27        -6.1696   -4.1837   58.0472 H       1  ZINC001090961577    0.0700
     28 H28        -6.4833   -3.7909   59.7547 H       1  ZINC001090961577    0.0700
     29 H29        -7.8436   -4.0691   58.6410 H       1  ZINC001090961577    0.0700
     30 H30        -5.8516   -1.7622   58.4763 H       1  ZINC001090961577    0.0800
     31 H31        -7.2120   -2.0405   57.3626 H       1  ZINC001090961577    0.0800
     32 H32        -8.5057    1.0461   59.5823 H       1  ZINC001090961577    0.0900
     33 H33        -6.8112    0.7699   59.1123 H       1  ZINC001090961577    0.0900
     34 H34        -8.0821    1.5535   57.1648 H       1  ZINC001090961577    0.1000
     35 H35        -7.6089   -0.1448   56.9197 H       1  ZINC001090961577    0.1000
     36 H36       -11.8082   -1.3968   56.2704 H       1  ZINC001090961577    0.0800
     37 H37       -12.2560    0.3300   56.1913 H       1  ZINC001090961577    0.0800
     38 H38       -13.1246    1.0715   54.1183 H       1  ZINC001090961577    0.0600
     39 H39       -13.0957   -0.0282   52.7190 H       1  ZINC001090961577    0.0600
     40 H40       -13.8545   -0.5471   54.2432 H       1  ZINC001090961577    0.0700
     41 H41       -10.5877   -0.7577   51.9579 H       1  ZINC001090961577    0.4200
     42 H42        -6.0639   -0.6007   50.6667 H       1  ZINC001090961577    0.1800
     43 H43        -3.0091    1.8082   52.4405 H       1  ZINC001090961577    0.1100
     44 H44        -4.0902    3.2052   52.2212 H       1  ZINC001090961577    0.0700
     45 H45        -4.7456    1.6551   52.8007 H       1  ZINC001090961577    0.0700
     46 H46        -7.6513    3.3664   51.1670 H       1  ZINC001090961577    0.1800
     47 H47        -8.7297    0.8770   54.8958 H       1  ZINC001090961577    0.0900
     48 H48        -8.9279   -0.8825   54.6313 H       1  ZINC001090961577    0.0800
@<TRIPOS>BOND
     1     1     2    1
     2     1    27    1
     3     1    28    1
     4     1    29    1
     5     2     3    1
     6     2    30    1
     7     2    31    1
     8     3     4    1
     9     4     5    1
    10     4    32    1
    11     4    33    1
    12     5     6    1
    13     5    34    1
    14     5    35    1
    15     6     7    2
    16     6     8   am
    17     8    26    1
    18     8     9    1
    19     9    10    1
    20     9    36    1
    21     9    37    1
    22    10    11    1
    23    10    12    1
    24    10    13    1
    25    12    38    1
    26    12    39    1
    27    12    40    1
    28    13    14    1
    29    13    15    1
    30    13    26    1
    31    15    16    1
    32    15    41    1
    33    16    25   ar
    34    16    17   ar
    35    17    18   ar
    36    18    19   ar
    37    18    42    1
    38    19    20    1
    39    19    24   ar
    40    20    21    2
    41    20    22    1
    42    22    23    1
    43    23    43    1
    44    23    44    1
    45    23    45    1
    46    24    25   ar
    47    24    46    1
    48    26    47    1
    49    26    48    1
@<TRIPOS>SUBSTRUCTURE
     1 ZINC001090961577        1 TEMP              0 ****  ****    0 ROOT


##########                                Name:    ZINC001105793963
##########                DOCK_Rotatable_Bonds:                   9
##########                         Heavy_Atoms:                  24
##########                    Molecular_Weight:             337.422
##########                DOCK_Rotatable_Bonds:                   9
##########                       Formal_Charge:          -0.0100003
##########                     HBond_Acceptors:                   8
##########                        HBond_Donors:                   2
##########                         Heavy_Atoms:                  24
##########                          Grid_Score:          -32.089615
##########                     Grid_vdw_energy:          -29.828812
##########                      Grid_es_energy:           -2.260805
##########           Internal_energy_repulsive:           16.962103

@<TRIPOS>MOLECULE
ZINC001105793963
 51 52 1 0 0
SMALL
USER_CHARGES


@<TRIPOS>ATOM
      1 C1         -8.2749    0.1777   59.1527 C.3     1  ZINC001105793963   -0.1500
      2 C2         -7.5092    1.4991   59.0600 C.3     1  ZINC001105793963   -0.0300
      3 C3         -6.9944    1.6838   57.6558 C.2     1  ZINC001105793963    0.1800
      4 N4         -5.8995    2.3129   57.3020 N.2     1  ZINC001105793963   -0.4800
      5 C5         -5.8481    2.2237   55.9609 C.2     1  ZINC001105793963    0.1700
      6 C6         -4.7737    2.7916   55.0698 C.3     1  ZINC001105793963    0.1500
      7 N7         -4.7828    2.0863   53.7812 N.3     1  ZINC001105793963   -0.6900
      8 C8         -3.7717    2.6402   52.8708 C.3     1  ZINC001105793963    0.0700
      9 C9         -3.9580    2.0401   51.4758 C.3     1  ZINC001105793963   -0.1000
     10 H10        -4.3971    1.0450   51.5478 H       1  ZINC001105793963    0.1000
     11 C11        -2.6058    1.9777   50.7333 C.3     1  ZINC001105793963    0.1100
     12 N12        -2.9376    2.2958   49.3250 N.am    1  ZINC001105793963   -0.6200
     13 C13        -2.4316    1.7340   48.2093 C.2     1  ZINC001105793963    0.5300
     14 O14        -2.8070    2.1077   47.1183 O.2     1  ZINC001105793963   -0.5300
     15 C15        -1.3994    0.6413   48.3174 C.3     1  ZINC001105793963    0.1300
     16 H16        -1.7964   -0.1752   48.9205 H       1  ZINC001105793963    0.1100
     17 C17        -1.0570    0.1230   46.9193 C.3     1  ZINC001105793963   -0.1600
     18 N18        -0.1901    1.1729   48.9509 N.am    1  ZINC001105793963   -0.7200
     19 C19         0.3717    2.3063   48.4858 C.2     1  ZINC001105793963    0.5200
     20 C20         1.6167    2.8522   49.1362 C.3     1  ZINC001105793963   -0.1700
     21 O21        -0.1248    2.8869   47.5439 O.2     1  ZINC001105793963   -0.5500
     22 C22        -3.9518    3.3714   49.4213 C.3     1  ZINC001105793963    0.1000
     23 C23        -4.8477    2.9576   50.6116 C.3     1  ZINC001105793963   -0.1000
     24 H24        -5.1512    3.8362   51.1809 H       1  ZINC001105793963    0.0900
     25 C25        -6.0781    2.1975   50.1122 C.3     1  ZINC001105793963   -0.1500
     26 N26        -6.8948    1.5574   55.5748 N.2     1  ZINC001105793963   -0.3700
     27 O27        -7.5632    1.2330   56.5337 O.3     1  ZINC001105793963    0.0800
     28 H28        -9.1142    0.1946   58.4574 H       1  ZINC001105793963    0.0600
     29 H29        -7.6090   -0.6468   58.8985 H       1  ZINC001105793963    0.0600
     30 H30        -8.6473    0.0440   60.1684 H       1  ZINC001105793963    0.0800
     31 H31        -8.1752    2.3236   59.3143 H       1  ZINC001105793963    0.1100
     32 H32        -6.6700    1.4822   59.7554 H       1  ZINC001105793963    0.1000
     33 H33        -4.9618    3.8525   54.9048 H       1  ZINC001105793963    0.1000
     34 H34        -3.8016    2.6648   55.5466 H       1  ZINC001105793963    0.0700
     35 H35        -4.6484    1.0948   53.9107 H       1  ZINC001105793963    0.3500
     36 H36        -3.8840    3.7231   52.8185 H       1  ZINC001105793963    0.0800
     37 H37        -2.7761    2.3957   53.2415 H       1  ZINC001105793963    0.0400
     38 H38        -1.9157    2.7181   51.1378 H       1  ZINC001105793963    0.0700
     39 H39        -2.1777    0.9779   50.8065 H       1  ZINC001105793963    0.0900
     40 H40        -0.3103   -0.6673   46.9974 H       1  ZINC001105793963    0.0800
     41 H41        -1.9567   -0.2725   46.4479 H       1  ZINC001105793963    0.0800
     42 H42        -0.6599    0.9395   46.3162 H       1  ZINC001105793963    0.0600
     43 H43         0.2063    0.7092   49.7050 H       1  ZINC001105793963    0.4100
     44 H44         1.9124    2.2009   49.9586 H       1  ZINC001105793963    0.0800
     45 H45         2.4205    2.8974   48.4014 H       1  ZINC001105793963    0.1000
     46 H46         1.4176    3.8531   49.5191 H       1  ZINC001105793963    0.1000
     47 H47        -3.4718    4.3295   49.6208 H       1  ZINC001105793963    0.0800
     48 H48        -4.5391    3.4231   48.5046 H       1  ZINC001105793963    0.0900
     49 H49        -5.7595    1.3157   49.5563 H       1  ZINC001105793963    0.0600
     50 H50        -6.6858    1.8905   50.9634 H       1  ZINC001105793963    0.0600
     51 H51        -6.6654    2.8448   49.4610 H       1  ZINC001105793963    0.0600
@<TRIPOS>BOND
     1     1     2    1
     2     1    28    1
     3     1    29    1
     4     1    30    1
     5     2     3    1
     6     2    31    1
     7     2    32    1
     8     3    27    1
     9     3     4    2
    10     4     5    1
    11     5     6    1
    12     5    26    2
    13     6     7    1
    14     6    33    1
    15     6    34    1
    16     7     8    1
    17     7    35    1
    18     8     9    1
    19     8    36    1
    20     8    37    1
    21     9    10    1
    22     9    23    1
    23     9    11    1
    24    11    12    1
    25    11    38    1
    26    11    39    1
    27    12    13   am
    28    12    22    1
    29    13    14    2
    30    13    15    1
    31    15    16    1
    32    15    17    1
    33    15    18    1
    34    17    40    1
    35    17    41    1
    36    17    42    1
    37    18    19   am
    38    18    43    1
    39    19    20    1
    40    19    21    2
    41    20    44    1
    42    20    45    1
    43    20    46    1
    44    22    23    1
    45    22    47    1
    46    22    48    1
    47    23    24    1
    48    23    25    1
    49    25    49    1
    50    25    50    1
    51    25    51    1
    52    26    27    1
@<TRIPOS>SUBSTRUCTURE
     1 ZINC001105793963        1 TEMP              0 ****  ****    0 ROOT


##########                                Name:    ZINC001009116151
##########                DOCK_Rotatable_Bonds:                   6
##########                         Heavy_Atoms:                  25
##########                    Molecular_Weight:             342.481
##########                DOCK_Rotatable_Bonds:                   6
##########                       Formal_Charge:           0.0600006
##########                     HBond_Acceptors:                   4
##########                        HBond_Donors:                   1
##########                         Heavy_Atoms:                  25
##########                          Grid_Score:          -32.076397
##########                     Grid_vdw_energy:          -31.091217
##########                      Grid_es_energy:           -0.985179
##########           Internal_energy_repulsive:           10.975830

@<TRIPOS>MOLECULE
ZINC001009116151
 55 59 1 0 0
SMALL
USER_CHARGES


@<TRIPOS>ATOM
      1 O1         -3.9508    2.5651   47.3985 O.2     1  ZINC001009116151   -0.5400
      2 C2         -2.9405    2.6843   48.0588 C.2     1  ZINC001009116151    0.5200
      3 N3         -2.9856    3.3075   49.2530 N.am    1  ZINC001009116151   -0.7300
      4 C4         -4.2538    3.8462   49.7507 C.3     1  ZINC001009116151    0.1500
      5 C5         -4.9159    2.8216   50.6741 C.3     1  ZINC001009116151   -0.1200
      6 H6         -4.2431    2.2974   51.3527 H       1  ZINC001009116151    0.1100
      7 C7         -6.1084    2.0396   50.1197 C.3     1  ZINC001009116151   -0.1700
      8 H8         -6.4065    2.1795   49.0807 H       1  ZINC001009116151    0.1200
      9 C9         -6.4809    0.7034   50.7975 C.3     1  ZINC001009116151    0.1300
     10 N10        -7.3916    1.0855   51.9019 N.am    1  ZINC001009116151   -0.6200
     11 C11        -8.5044    0.4468   52.3142 C.2     1  ZINC001009116151    0.5500
     12 O12        -8.8604   -0.5710   51.7592 O.2     1  ZINC001009116151   -0.5300
     13 C13        -9.3063    0.9974   53.4653 C.3     1  ZINC001009116151   -0.1200
     14 C14       -10.7721    0.5088   53.4047 C.3     1  ZINC001009116151   -0.0900
     15 C15       -10.7991   -0.7325   54.2659 C.2     1  ZINC001009116151   -0.1800
     16 C16        -9.7440   -0.7964   55.0315 C.2     1  ZINC001009116151   -0.1500
     17 C17        -8.8373    0.3916   54.8086 C.3     1  ZINC001009116151   -0.0900
     18 C18        -6.8014    2.3290   52.4499 C.3     1  ZINC001009116151    0.1200
     19 C19        -6.3247    3.1362   51.1813 C.3     1  ZINC001009116151   -0.1600
     20 H20        -6.8156    4.0869   50.9736 H       1  ZINC001009116151    0.1300
     21 C21        -1.6359    2.1302   47.5469 C.3     1  ZINC001009116151   -0.0700
     22 C22        -1.8446    1.5423   46.1498 C.3     1  ZINC001009116151   -0.1100
     23 C23        -0.5202    0.9797   45.6301 C.3     1  ZINC001009116151   -0.1100
     24 C24         0.5715    1.1925   46.6807 C.3     1  ZINC001009116151   -0.0900
     25 C25         0.7271    2.6889   46.9587 C.3     1  ZINC001009116151   -0.1100
     26 C26        -0.5973    3.2515   47.4784 C.3     1  ZINC001009116151   -0.0900
     27 C27         0.1832    0.4714   47.9730 C.3     1  ZINC001009116151   -0.1100
     28 C28        -1.1413    1.0340   48.4927 C.3     1  ZINC001009116151   -0.1000
     29 H29        -2.1784    3.3994   49.7830 H       1  ZINC001009116151    0.4000
     30 H30        -4.0655    4.7660   50.3043 H       1  ZINC001009116151    0.0800
     31 H31        -4.9140    4.0572   48.9094 H       1  ZINC001009116151    0.0700
     32 H32        -6.9929    0.0490   50.0919 H       1  ZINC001009116151    0.0900
     33 H33        -5.5894    0.2155   51.1916 H       1  ZINC001009116151    0.0800
     34 H34        -9.2567    2.0861   53.4885 H       1  ZINC001009116151    0.1100
     35 H35       -11.4421    1.2669   53.8101 H       1  ZINC001009116151    0.0900
     36 H36       -11.0490    0.2653   52.3789 H       1  ZINC001009116151    0.0800
     37 H37       -11.5881   -1.4698   54.2503 H       1  ZINC001009116151    0.1300
     38 H38        -9.5452   -1.5935   55.7326 H       1  ZINC001009116151    0.1300
     39 H39        -7.7987    0.0686   54.7373 H       1  ZINC001009116151    0.0900
     40 H40        -8.9559    1.1163   55.6141 H       1  ZINC001009116151    0.0900
     41 H41        -7.5552    2.9010   52.9910 H       1  ZINC001009116151    0.0900
     42 H42        -5.9600    2.0950   53.1020 H       1  ZINC001009116151    0.0800
     43 H43        -2.5845    0.7434   46.1987 H       1  ZINC001009116151    0.0700
     44 H44        -2.1971    2.3232   45.4760 H       1  ZINC001009116151    0.0700
     45 H45        -0.6310   -0.0865   45.4322 H       1  ZINC001009116151    0.0700
     46 H46        -0.2435    1.4934   44.7095 H       1  ZINC001009116151    0.0700
     47 H47         1.5152    0.7916   46.3104 H       1  ZINC001009116151    0.0700
     48 H48         1.5050    2.8405   47.7072 H       1  ZINC001009116151    0.0700
     49 H49         1.0038    3.2027   46.0380 H       1  ZINC001009116151    0.0700
     50 H50        -0.9497    4.0325   46.8045 H       1  ZINC001009116151    0.0700
     51 H51        -0.4487    3.6704   48.4736 H       1  ZINC001009116151    0.0700
     52 H52         0.0723   -0.5948   47.7751 H       1  ZINC001009116151    0.0700
     53 H53         0.9610    0.6230   48.7215 H       1  ZINC001009116151    0.0700
     54 H54        -0.9925    1.4528   49.4880 H       1  ZINC001009116151    0.0700
     55 H55        -1.8812    0.2351   48.5416 H       1  ZINC001009116151    0.0700
@<TRIPOS>BOND
     1     1     2    2
     2     2     3   am
     3     2    21    1
     4     3     4    1
     5     3    29    1
     6     4     5    1
     7     4    30    1
     8     4    31    1
     9     5     6    1
    10     5    19    1
    11     5     7    1
    12     7     8    1
    13     7    19    1
    14     7     9    1
    15     9    10    1
    16     9    32    1
    17     9    33    1
    18    10    11   am
    19    10    18    1
    20    11    12    2
    21    11    13    1
    22    13    17    1
    23    13    14    1
    24    13    34    1
    25    14    15    1
    26    14    35    1
    27    14    36    1
    28    15    16    2
    29    15    37    1
    30    16    17    1
    31    16    38    1
    32    17    39    1
    33    17    40    1
    34    18    19    1
    35    18    41    1
    36    18    42    1
    37    19    20    1
    38    21    26    1
    39    21    28    1
    40    21    22    1
    41    22    23    1
    42    22    43    1
    43    22    44    1
    44    23    24    1
    45    23    45    1
    46    23    46    1
    47    24    25    1
    48    24    27    1
    49    24    47    1
    50    25    26    1
    51    25    48    1
    52    25    49    1
    53    26    50    1
    54    26    51    1
    55    27    28    1
    56    27    52    1
    57    27    53    1
    58    28    54    1
    59    28    55    1
@<TRIPOS>SUBSTRUCTURE
     1 ZINC001009116151        1 TEMP              0 ****  ****    0 ROOT


##########                                Name:    ZINC000546115054
##########                DOCK_Rotatable_Bonds:                  10
##########                         Heavy_Atoms:                  26
##########                    Molecular_Weight:             363.457
##########                DOCK_Rotatable_Bonds:                  10
##########                       Formal_Charge:        -4.39584e-07
##########                     HBond_Acceptors:                   7
##########                        HBond_Donors:                   2
##########                         Heavy_Atoms:                  26
##########                          Grid_Score:          -32.071754
##########                     Grid_vdw_energy:          -31.398748
##########                      Grid_es_energy:           -0.673005
##########           Internal_energy_repulsive:           28.172447

@<TRIPOS>MOLECULE
ZINC000546115054
 55 56 1 0 0
SMALL
USER_CHARGES


@<TRIPOS>ATOM
      1 C1         -0.9752    5.3952   43.6292 C.3     1  ZINC000546115054   -0.1500
      2 C2         -0.3212    4.8322   44.8927 C.3     1  ZINC000546115054    0.0600
      3 O3         -1.1396    3.7907   45.4290 O.3     1  ZINC000546115054   -0.3700
      4 C4         -0.4484    2.9045   46.3115 C.3     1  ZINC000546115054    0.0500
      5 H5          0.2340    3.4761   46.9408 H       1  ZINC000546115054    0.0700
      6 C6          0.3452    1.8830   45.4927 C.3     1  ZINC000546115054    0.0400
      7 O7          0.9889    0.9628   46.3764 O.3     1  ZINC000546115054   -0.3700
      8 C8          0.0886    0.2092   47.1911 C.3     1  ZINC000546115054    0.0600
      9 C9         -0.7153    1.1634   48.0781 C.3     1  ZINC000546115054   -0.1600
     10 C10        -1.4610    2.1669   47.1929 C.3     1  ZINC000546115054    0.1700
     11 H11        -2.1739    1.6367   46.5613 H       1  ZINC000546115054    0.1000
     12 N12        -2.1744    3.1290   48.0365 N.am    1  ZINC000546115054   -0.7300
     13 C13        -3.3381    2.7802   48.6203 C.2     1  ZINC000546115054    0.7200
     14 O14        -3.7964    1.6677   48.4457 O.2     1  ZINC000546115054   -0.5900
     15 N15        -3.9936    3.6648   49.3977 N.am    1  ZINC000546115054   -0.7200
     16 C16        -5.2594    3.2863   50.0308 C.3     1  ZINC000546115054    0.1600
     17 H17        -5.8118    2.6197   49.3686 H       1  ZINC000546115054    0.1200
     18 C18        -4.9744    2.5707   51.3528 C.3     1  ZINC000546115054   -0.1000
     19 C19        -6.2065    1.8249   51.7961 C.ar    1  ZINC000546115054   -0.0800
     20 C20        -6.6629    0.7459   51.0621 C.ar    1  ZINC000546115054   -0.1100
     21 C21        -7.7931    0.0619   51.4688 C.ar    1  ZINC000546115054   -0.1200
     22 C22        -8.4669    0.4563   52.6094 C.ar    1  ZINC000546115054   -0.1200
     23 C23        -8.0102    1.5347   53.3438 C.ar    1  ZINC000546115054   -0.1200
     24 C24        -6.8774    2.2162   52.9398 C.ar    1  ZINC000546115054   -0.1100
     25 C25        -6.0783    4.5234   50.2956 C.2     1  ZINC000546115054    0.5000
     26 O26        -5.5417    5.5283   50.7114 O.2     1  ZINC000546115054   -0.5200
     27 N27        -7.4071    4.5130   50.0701 N.am    1  ZINC000546115054   -0.6200
     28 C28        -8.2029    5.7161   50.3258 C.3     1  ZINC000546115054    0.0800
     29 C29        -8.0555    3.2985   49.5695 C.3     1  ZINC000546115054    0.0700
     30 H30        -0.3511    6.1897   43.2201 H       1  ZINC000546115054    0.0700
     31 H31        -1.0825    4.6007   42.8908 H       1  ZINC000546115054    0.0600
     32 H32        -1.9581    5.7963   43.8767 H       1  ZINC000546115054    0.0600
     33 H33         0.6616    4.4311   44.6452 H       1  ZINC000546115054    0.0500
     34 H34        -0.2140    5.6268   45.6311 H       1  ZINC000546115054    0.0500
     35 H35        -0.3322    1.3405   44.8334 H       1  ZINC000546115054    0.0600
     36 H36         1.0967    2.4003   44.8961 H       1  ZINC000546115054    0.1000
     37 H37        -0.5923   -0.3553   46.5539 H       1  ZINC000546115054    0.0600
     38 H38         0.6551   -0.4794   47.8178 H       1  ZINC000546115054    0.1000
     39 H39        -1.4335    0.5943   48.6682 H       1  ZINC000546115054    0.0900
     40 H40        -0.0385    1.6991   48.7438 H       1  ZINC000546115054    0.0800
     41 H41        -1.8095    4.0169   48.1748 H       1  ZINC000546115054    0.3900
     42 H42        -3.6274    4.5519   49.5379 H       1  ZINC000546115054    0.4000
     43 H43        -4.1535    1.8670   51.2154 H       1  ZINC000546115054    0.0900
     44 H44        -4.7011    3.3042   52.1113 H       1  ZINC000546115054    0.1100
     45 H45        -6.1364    0.4378   50.1710 H       1  ZINC000546115054    0.1200
     46 H46        -8.1500   -0.7807   50.8950 H       1  ZINC000546115054    0.1200
     47 H47        -9.3504   -0.0778   52.9267 H       1  ZINC000546115054    0.1200
     48 H48        -8.5368    1.8431   54.2349 H       1  ZINC000546115054    0.1200
     49 H49        -6.5205    3.0587   53.5135 H       1  ZINC000546115054    0.1200
     50 H50        -8.2388    6.3265   49.4234 H       1  ZINC000546115054    0.0600
     51 H51        -9.2150    5.4285   50.6106 H       1  ZINC000546115054    0.0700
     52 H52        -7.7468    6.2884   51.1336 H       1  ZINC000546115054    0.0800
     53 H53        -8.3778    2.6853   50.4110 H       1  ZINC000546115054    0.0600
     54 H54        -8.9214    3.5713   48.9661 H       1  ZINC000546115054    0.0800
     55 H55        -7.3501    2.7352   48.9587 H       1  ZINC000546115054    0.0700
@<TRIPOS>BOND
     1     1     2    1
     2     1    30    1
     3     1    31    1
     4     1    32    1
     5     2     3    1
     6     2    33    1
     7     2    34    1
     8     3     4    1
     9     4     5    1
    10     4    10    1
    11     4     6    1
    12     6     7    1
    13     6    35    1
    14     6    36    1
    15     7     8    1
    16     8     9    1
    17     8    37    1
    18     8    38    1
    19     9    10    1
    20     9    39    1
    21     9    40    1
    22    10    11    1
    23    10    12    1
    24    12    13   am
    25    12    41    1
    26    13    14    2
    27    13    15   am
    28    15    16    1
    29    15    42    1
    30    16    17    1
    31    16    18    1
    32    16    25    1
    33    18    19    1
    34    18    43    1
    35    18    44    1
    36    19    24   ar
    37    19    20   ar
    38    20    21   ar
    39    20    45    1
    40    21    22   ar
    41    21    46    1
    42    22    23   ar
    43    22    47    1
    44    23    24   ar
    45    23    48    1
    46    24    49    1
    47    25    26    2
    48    25    27   am
    49    27    28    1
    50    27    29    1
    51    28    50    1
    52    28    51    1
    53    28    52    1
    54    29    53    1
    55    29    54    1
    56    29    55    1
@<TRIPOS>SUBSTRUCTURE
     1 ZINC000546115054        1 TEMP              0 ****  ****    0 ROOT


##########                                Name:    ZINC000066361645
##########                DOCK_Rotatable_Bonds:                   8
##########                         Heavy_Atoms:                  27
##########                    Molecular_Weight:             392.519
##########                DOCK_Rotatable_Bonds:                   8
##########                       Formal_Charge:           0.0100004
##########                     HBond_Acceptors:                   7
##########                        HBond_Donors:                   2
##########                         Heavy_Atoms:                  27
##########                          Grid_Score:          -32.064098
##########                     Grid_vdw_energy:          -30.558817
##########                      Grid_es_energy:           -1.505282
##########           Internal_energy_repulsive:            6.916863

@<TRIPOS>MOLECULE
ZINC000066361645
 55 57 1 0 0
SMALL
USER_CHARGES


@<TRIPOS>ATOM
      1 C1         -7.3614    1.9561   50.4101 C.3     1  ZINC000066361645   -0.1400
      2 S2         -6.1663    3.2003   50.9704 S.3     1  ZINC000066361645   -0.1100
      3 C3         -4.6282    2.5578   50.3996 C.ar    1  ZINC000066361645   -0.1200
      4 C4         -4.3561    2.5118   49.0405 C.ar    1  ZINC000066361645   -0.1100
      5 C5         -3.1450    2.0068   48.5900 C.ar    1  ZINC000066361645    0.0500
      6 C6         -2.2019    1.5478   49.5013 C.ar    1  ZINC000066361645    0.0700
      7 C7         -2.4727    1.5913   50.8612 C.ar    1  ZINC000066361645   -0.1100
      8 C8         -3.6800    2.1000   51.3139 C.ar    1  ZINC000066361645    0.1800
      9 N9         -3.9523    2.1437   52.6896 N.am    1  ZINC000066361645   -0.6600
     10 C10        -3.5624    3.2069   53.4203 C.2     1  ZINC000066361645    0.5100
     11 O11        -2.9760    4.1261   52.8886 O.2     1  ZINC000066361645   -0.5000
     12 C12        -3.8548    3.2538   54.8979 C.3     1  ZINC000066361645   -0.1500
     13 C13        -5.3639    3.1406   55.1230 C.3     1  ZINC000066361645    0.1600
     14 H14        -5.8005    2.5099   54.3486 H       1  ZINC000066361645    0.1000
     15 C15        -5.9945    4.5333   55.0621 C.3     1  ZINC000066361645   -0.1600
     16 N16        -5.6183    2.5465   56.4377 N.am    1  ZINC000066361645   -0.7200
     17 C17        -6.7578    1.8615   56.6587 C.2     1  ZINC000066361645    0.5300
     18 O18        -7.5721    1.7360   55.7686 O.2     1  ZINC000066361645   -0.5400
     19 C19        -7.0203    1.2519   58.0116 C.3     1  ZINC000066361645   -0.1100
     20 C20        -7.7723    2.2567   58.8865 C.3     1  ZINC000066361645   -0.1100
     21 C21        -8.0388    1.6378   60.2602 C.3     1  ZINC000066361645   -0.1200
     22 C22        -8.8838    0.3731   60.0944 C.3     1  ZINC000066361645   -0.1200
     23 C23        -8.1317   -0.6317   59.2194 C.3     1  ZINC000066361645   -0.1200
     24 C24        -7.8653   -0.0128   57.8458 C.3     1  ZINC000066361645   -0.1000
     25 O25        -1.0044    1.0559   49.0763 O.3     1  ZINC000066361645   -0.3000
     26 C26        -0.9149    0.6817   47.6975 C.3     1  ZINC000066361645    0.0200
     27 C27        -1.5316    1.8055   46.8537 C.3     1  ZINC000066361645    0.0200
     28 O28        -2.8975    1.9662   47.2513 O.3     1  ZINC000066361645   -0.3100
     29 H29        -7.3187    1.8744   49.3240 H       1  ZINC000066361645    0.0900
     30 H30        -7.1185    0.9919   50.8568 H       1  ZINC000066361645    0.0900
     31 H31        -8.3652    2.2541   50.7129 H       1  ZINC000066361645    0.1100
     32 H32        -5.0883    2.8695   48.3317 H       1  ZINC000066361645    0.1400
     33 H33        -1.7401    1.2318   51.5685 H       1  ZINC000066361645    0.1600
     34 H34        -4.4211    1.4086   53.1148 H       1  ZINC000066361645    0.4100
     35 H35        -3.3502    2.4252   55.3947 H       1  ZINC000066361645    0.1000
     36 H36        -3.4958    4.1971   55.3095 H       1  ZINC000066361645    0.1200
     37 H37        -5.5579    5.1640   55.8365 H       1  ZINC000066361645    0.0600
     38 H38        -5.8053    4.9753   54.0839 H       1  ZINC000066361645    0.0700
     39 H39        -7.0696    4.4526   55.2225 H       1  ZINC000066361645    0.0700
     40 H40        -4.9665    2.6459   57.1493 H       1  ZINC000066361645    0.4000
     41 H41        -6.0723    0.9960   58.4849 H       1  ZINC000066361645    0.1000
     42 H42        -7.1704    3.1577   59.0047 H       1  ZINC000066361645    0.0600
     43 H43        -8.7204    2.5126   58.4133 H       1  ZINC000066361645    0.0700
     44 H44        -7.0909    1.3819   60.7334 H       1  ZINC000066361645    0.0600
     45 H45        -8.5746    2.3536   60.8835 H       1  ZINC000066361645    0.0700
     46 H46        -9.0736   -0.0678   61.0731 H       1  ZINC000066361645    0.0600
     47 H47        -9.8317    0.6289   59.6212 H       1  ZINC000066361645    0.0600
     48 H48        -7.1837   -0.8875   59.6928 H       1  ZINC000066361645    0.0600
     49 H49        -8.7337   -1.5328   59.1014 H       1  ZINC000066361645    0.0700
     50 H50        -8.8132    0.2431   57.3726 H       1  ZINC000066361645    0.0700
     51 H51        -7.3295   -0.7286   57.2225 H       1  ZINC000066361645    0.0700
     52 H52         0.1305    0.5455   47.4205 H       1  ZINC000066361645    0.1300
     53 H53        -1.4635   -0.2456   47.5319 H       1  ZINC000066361645    0.0800
     54 H54        -0.9873    2.7343   47.0243 H       1  ZINC000066361645    0.0800
     55 H55        -1.4850    1.5401   45.7974 H       1  ZINC000066361645    0.1200
@<TRIPOS>BOND
     1     1     2    1
     2     1    29    1
     3     1    30    1
     4     1    31    1
     5     2     3    1
     6     3     8   ar
     7     3     4   ar
     8     4     5   ar
     9     4    32    1
    10     5    28    1
    11     5     6   ar
    12     6     7   ar
    13     6    25    1
    14     7     8   ar
    15     7    33    1
    16     8     9    1
    17     9    10   am
    18     9    34    1
    19    10    11    2
    20    10    12    1
    21    12    13    1
    22    12    35    1
    23    12    36    1
    24    13    14    1
    25    13    15    1
    26    13    16    1
    27    15    37    1
    28    15    38    1
    29    15    39    1
    30    16    17   am
    31    16    40    1
    32    17    18    2
    33    17    19    1
    34    19    24    1
    35    19    20    1
    36    19    41    1
    37    20    21    1
    38    20    42    1
    39    20    43    1
    40    21    22    1
    41    21    44    1
    42    21    45    1
    43    22    23    1
    44    22    46    1
    45    22    47    1
    46    23    24    1
    47    23    48    1
    48    23    49    1
    49    24    50    1
    50    24    51    1
    51    25    26    1
    52    26    27    1
    53    26    52    1
    54    26    53    1
    55    27    28    1
    56    27    54    1
    57    27    55    1
@<TRIPOS>SUBSTRUCTURE
     1 ZINC000066361645        1 TEMP              0 ****  ****    0 ROOT


##########                                Name:    ZINC000150894060
##########                DOCK_Rotatable_Bonds:                  10
##########                         Heavy_Atoms:                  27
##########                    Molecular_Weight:              366.42
##########                DOCK_Rotatable_Bonds:                  10
##########                       Formal_Charge:        -6.70552e-07
##########                     HBond_Acceptors:                   7
##########                        HBond_Donors:                   2
##########                         Heavy_Atoms:                  27
##########                          Grid_Score:          -32.052097
##########                     Grid_vdw_energy:          -31.394011
##########                      Grid_es_energy:           -0.658085
##########           Internal_energy_repulsive:           10.512074

@<TRIPOS>MOLECULE
ZINC000150894060
 49 51 1 0 0
SMALL
USER_CHARGES


@<TRIPOS>ATOM
      1 C1         -7.0686   -1.2710   59.0319 C.3     1  ZINC000150894060   -0.1000
      2 C2         -7.6083   -2.5637   58.4759 C.2     1  ZINC000150894060   -0.0800
      3 C3         -8.5662   -2.6995   57.5124 C.2     1  ZINC000150894060   -0.1000
      4 C4         -9.2608   -1.6045   56.8273 C.2     1  ZINC000150894060    0.6100
      5 O5        -10.4420   -1.7100   56.5539 O.2     1  ZINC000150894060   -0.5100
      6 N6         -8.5912   -0.4815   56.5006 N.am    1  ZINC000150894060   -0.7200
      7 C7         -9.2855    0.6130   55.8179 C.3     1  ZINC000150894060    0.1200
      8 C8         -9.1147    0.4604   54.3051 C.3     1  ZINC000150894060   -0.1500
      9 C9         -8.9847    1.8437   53.6645 C.3     1  ZINC000150894060    0.1200
     10 N10        -7.6820    1.9553   53.0036 N.am    1  ZINC000150894060   -0.7300
     11 C11        -7.5091    2.8375   51.9995 C.2     1  ZINC000150894060    0.5600
     12 O12        -8.4336    3.5417   51.6432 O.2     1  ZINC000150894060   -0.5300
     13 C13        -6.1949    2.9489   51.3315 C.ar    1  ZINC000150894060   -0.1300
     14 C14        -5.9844    2.3410   50.0929 C.ar    1  ZINC000150894060   -0.0900
     15 C15        -4.7559    2.4493   49.4746 C.ar    1  ZINC000150894060   -0.0900
     16 C16        -3.7334    3.1583   50.0799 C.ar    1  ZINC000150894060   -0.0800
     17 C17        -2.3939    3.2719   49.3990 C.3     1  ZINC000150894060    0.1700
     18 N18        -2.0153    1.9692   48.8459 N.pl3   1  ZINC000150894060   -0.3700
     19 C19        -2.3486    1.4973   47.6263 C.2     1  ZINC000150894060    0.0500
     20 C20        -1.8070    0.2637   47.4992 C.2     1  ZINC000150894060   -0.2700
     21 C21        -1.1191   -0.0281   48.6815 C.2     1  ZINC000150894060    0.0400
     22 N22        -1.2381    0.9960   49.4871 N.2     1  ZINC000150894060   -0.2900
     23 C23        -3.9357    3.7637   51.3075 C.ar    1  ZINC000150894060   -0.1100
     24 C24        -5.1610    3.6676   51.9340 C.ar    1  ZINC000150894060   -0.0600
     25 O25        -8.7615   -4.0176   57.3009 O.3     1  ZINC000150894060   -0.1700
     26 C26        -7.9535   -4.7212   58.1044 C.2     1  ZINC000150894060    0.0000
     27 C27        -7.2194   -3.8611   58.8441 C.2     1  ZINC000150894060   -0.2300
     28 H28        -6.2134   -0.9490   58.4377 H       1  ZINC000150894060    0.0800
     29 H29        -7.8452   -0.5071   58.9945 H       1  ZINC000150894060    0.0900
     30 H30        -6.7569   -1.4221   60.0654 H       1  ZINC000150894060    0.0700
     31 H31        -7.6494   -0.3979   56.7175 H       1  ZINC000150894060    0.4100
     32 H32       -10.3458    0.5832   56.0687 H       1  ZINC000150894060    0.0800
     33 H33        -8.8635    1.5660   56.1368 H       1  ZINC000150894060    0.0800
     34 H34        -8.2170   -0.1219   54.0977 H       1  ZINC000150894060    0.0800
     35 H35        -9.9835   -0.0516   53.8912 H       1  ZINC000150894060    0.0800
     36 H36        -9.7779    1.9796   52.9293 H       1  ZINC000150894060    0.0800
     37 H37        -9.0681    2.6102   54.4348 H       1  ZINC000150894060    0.0800
     38 H38        -6.9438    1.3943   53.2887 H       1  ZINC000150894060    0.4000
     39 H39        -6.7813    1.7867   49.6197 H       1  ZINC000150894060    0.1300
     40 H40        -4.5917    1.9793   48.5162 H       1  ZINC000150894060    0.1300
     41 H41        -2.4564    4.0041   48.5940 H       1  ZINC000150894060    0.1100
     42 H42        -1.6442    3.5910   50.1230 H       1  ZINC000150894060    0.1000
     43 H43        -2.9418    2.0118   46.8848 H       1  ZINC000150894060    0.1700
     44 H44        -1.8915   -0.3815   46.6373 H       1  ZINC000150894060    0.1500
     45 H45        -0.5787   -0.9394   48.8912 H       1  ZINC000150894060    0.1800
     46 H46        -3.1336    4.3159   51.7745 H       1  ZINC000150894060    0.1300
     47 H47        -5.3176    4.1409   52.8921 H       1  ZINC000150894060    0.1400
     48 H48        -7.8952   -5.7987   58.1504 H       1  ZINC000150894060    0.2100
     49 H49        -6.4776   -4.1228   59.5841 H       1  ZINC000150894060    0.1600
@<TRIPOS>BOND
     1     1     2    1
     2     1    28    1
     3     1    29    1
     4     1    30    1
     5     2    27    1
     6     2     3    2
     7     3     4    1
     8     3    25    1
     9     4     5    2
    10     4     6   am
    11     6     7    1
    12     6    31    1
    13     7     8    1
    14     7    32    1
    15     7    33    1
    16     8     9    1
    17     8    34    1
    18     8    35    1
    19     9    10    1
    20     9    36    1
    21     9    37    1
    22    10    11   am
    23    10    38    1
    24    11    12    2
    25    11    13    1
    26    13    24   ar
    27    13    14   ar
    28    14    15   ar
    29    14    39    1
    30    15    16   ar
    31    15    40    1
    32    16    17    1
    33    16    23   ar
    34    17    18    1
    35    17    41    1
    36    17    42    1
    37    18    22    1
    38    18    19    1
    39    19    20    2
    40    19    43    1
    41    20    21    1
    42    20    44    1
    43    21    22    2
    44    21    45    1
    45    23    24   ar
    46    23    46    1
    47    24    47    1
    48    25    26    1
    49    26    27    2
    50    26    48    1
    51    27    49    1
@<TRIPOS>SUBSTRUCTURE
     1 ZINC000150894060        1 TEMP              0 ****  ****    0 ROOT


##########                                Name:    ZINC001109404798
##########                DOCK_Rotatable_Bonds:                   7
##########                         Heavy_Atoms:                  25
##########                    Molecular_Weight:              360.48
##########                DOCK_Rotatable_Bonds:                   7
##########                       Formal_Charge:           0.0100002
##########                     HBond_Acceptors:                   7
##########                        HBond_Donors:                   1
##########                         Heavy_Atoms:                  25
##########                          Grid_Score:          -32.048672
##########                     Grid_vdw_energy:          -30.486498
##########                      Grid_es_energy:           -1.562176
##########           Internal_energy_repulsive:           27.235514

@<TRIPOS>MOLECULE
ZINC001109404798
 49 52 1 0 0
SMALL
USER_CHARGES


@<TRIPOS>ATOM
      1 C1         -0.8204    4.5237   44.4612 C.3     1  ZINC001109404798   -0.0600
      2 C2         -1.3972    3.6452   45.5413 C.2     1  ZINC001109404798    0.1700
      3 N3         -2.5159    2.9867   45.4813 N.2     1  ZINC001109404798   -0.3900
      4 O4         -2.6981    2.3737   46.5120 O.3     1  ZINC001109404798    0.1000
      5 C5         -1.6822    2.5896   47.3530 C.2     1  ZINC001109404798    0.1900
      6 C6         -1.5247    2.0140   48.7368 C.3     1  ZINC001109404798    0.1600
      7 H7         -1.0054    2.7316   49.3720 H       1  ZINC001109404798    0.1000
      8 C8         -0.7131    0.7191   48.6612 C.3     1  ZINC001109404798   -0.1500
      9 N9         -2.8501    1.7287   49.3023 N.3     1  ZINC001109404798   -0.4800
     10 C10        -3.6879    2.9789   49.3716 C.3     1  ZINC001109404798    0.0400
     11 H11        -3.9296    3.4433   48.4155 H       1  ZINC001109404798    0.1100
     12 C12        -2.8425    3.8505   50.3486 C.3     1  ZINC001109404798   -0.1600
     13 C13        -2.2103    2.8110   51.3063 C.3     1  ZINC001109404798   -0.1600
     14 C14        -2.7582    1.4501   50.7800 C.3     1  ZINC001109404798    0.0400
     15 H15        -2.1817    0.5695   51.0631 H       1  ZINC001109404798    0.1200
     16 C16        -4.2608    1.4324   51.1933 C.3     1  ZINC001109404798    0.1500
     17 H17        -4.6920    0.4448   51.0297 H       1  ZINC001109404798    0.1000
     18 N18        -4.4154    1.8356   52.5931 N.am    1  ZINC001109404798   -0.7200
     19 C19        -5.6457    2.0466   53.1016 C.2     1  ZINC001109404798    0.5100
     20 O20        -6.6247    1.9012   52.4007 O.2     1  ZINC001109404798   -0.5300
     21 C21        -5.8048    2.4632   54.5411 C.3     1  ZINC001109404798   -0.1300
     22 C22        -7.1496    1.9623   55.0714 C.3     1  ZINC001109404798   -0.0400
     23 C23        -7.1380    1.9914   56.5781 C.2     1  ZINC001109404798   -0.1000
     24 C24        -6.9869    3.1201   57.2727 C.2     1  ZINC001109404798   -0.2100
     25 S25        -7.0246    2.7626   58.9944 S.3     1  ZINC001109404798    0.1000
     26 C26        -7.2501    1.0499   58.6642 C.2     1  ZINC001109404798   -0.2100
     27 C27        -7.2891    0.8498   57.3460 C.2     1  ZINC001109404798   -0.1300
     28 C28        -4.9067    2.4752   50.2022 C.3     1  ZINC001109404798   -0.1100
     29 N29        -0.8460    3.3941   46.7421 N.2     1  ZINC001109404798   -0.4800
     30 H30        -0.1884    3.9253   43.8050 H       1  ZINC001109404798    0.0900
     31 H31        -1.6305    4.9659   43.8812 H       1  ZINC001109404798    0.0900
     32 H32        -0.2251    5.3153   44.9162 H       1  ZINC001109404798    0.0900
     33 H33         0.2704    0.9307   48.2416 H       1  ZINC001109404798    0.0700
     34 H34        -0.5992    0.3028   49.6621 H       1  ZINC001109404798    0.0800
     35 H35        -1.2323    0.0014   48.0260 H       1  ZINC001109404798    0.0800
     36 H36        -2.0683    4.3934   49.8065 H       1  ZINC001109404798    0.0700
     37 H37        -3.4823    4.5400   50.8992 H       1  ZINC001109404798    0.0800
     38 H38        -1.1228    2.8386   51.2388 H       1  ZINC001109404798    0.0700
     39 H39        -2.5367    2.9853   52.3315 H       1  ZINC001109404798    0.0800
     40 H40        -3.6326    1.9509   53.1540 H       1  ZINC001109404798    0.4000
     41 H41        -4.9975    2.0344   55.1348 H       1  ZINC001109404798    0.0900
     42 H42        -5.7690    3.5505   54.6108 H       1  ZINC001109404798    0.1000
     43 H43        -7.9483    2.6054   54.7017 H       1  ZINC001109404798    0.0800
     44 H44        -7.3176    0.9412   54.7291 H       1  ZINC001109404798    0.0800
     45 H45        -6.8603    4.1031   56.8436 H       1  ZINC001109404798    0.1600
     46 H46        -7.3470    0.2788   59.4142 H       1  ZINC001109404798    0.1600
     47 H47        -7.4206   -0.1299   56.9108 H       1  ZINC001109404798    0.1400
     48 H48        -5.3455    3.3073   50.7531 H       1  ZINC001109404798    0.0800
     49 H49        -5.6547    1.9937   49.5723 H       1  ZINC001109404798    0.0900
@<TRIPOS>BOND
     1     1     2    1
     2     1    30    1
     3     1    31    1
     4     1    32    1
     5     2    29    1
     6     2     3    2
     7     3     4    1
     8     4     5    1
     9     5     6    1
    10     5    29    2
    11     6     7    1
    12     6     8    1
    13     6     9    1
    14     8    33    1
    15     8    34    1
    16     8    35    1
    17     9    14    1
    18     9    10    1
    19    10    11    1
    20    10    28    1
    21    10    12    1
    22    12    13    1
    23    12    36    1
    24    12    37    1
    25    13    14    1
    26    13    38    1
    27    13    39    1
    28    14    15    1
    29    14    16    1
    30    16    17    1
    31    16    18    1
    32    16    28    1
    33    18    19   am
    34    18    40    1
    35    19    20    2
    36    19    21    1
    37    21    22    1
    38    21    41    1
    39    21    42    1
    40    22    23    1
    41    22    43    1
    42    22    44    1
    43    23    27    1
    44    23    24    2
    45    24    25    1
    46    24    45    1
    47    25    26    1
    48    26    27    2
    49    26    46    1
    50    27    47    1
    51    28    48    1
    52    28    49    1
@<TRIPOS>SUBSTRUCTURE
     1 ZINC001109404798        1 TEMP              0 ****  ****    0 ROOT


##########                                Name:    ZINC000433961694
##########                DOCK_Rotatable_Bonds:                   7
##########                         Heavy_Atoms:                  29
##########                    Molecular_Weight:             413.472
##########                DOCK_Rotatable_Bonds:                   7
##########                       Formal_Charge:          0.00999992
##########                     HBond_Acceptors:                   8
##########                        HBond_Donors:                   0
##########                         Heavy_Atoms:                  29
##########                          Grid_Score:          -32.031944
##########                     Grid_vdw_energy:          -30.779303
##########                      Grid_es_energy:           -1.252643
##########           Internal_energy_repulsive:           17.917252

@<TRIPOS>MOLECULE
ZINC000433961694
 49 52 1 0 0
SMALL
USER_CHARGES


@<TRIPOS>ATOM
      1 C1         -9.4313    1.0921   52.9849 C.3     1  ZINC000433961694   -0.1000
      2 C2         -8.3929    1.5745   53.9647 C.2     1  ZINC000433961694    0.1600
      3 C3         -7.4001    2.4335   53.6232 C.2     1  ZINC000433961694   -0.3000
      4 C4         -7.1783    3.0147   52.2947 C.2     1  ZINC000433961694    0.6200
      5 O5         -8.0658    3.6443   51.7501 O.2     1  ZINC000433961694   -0.5100
      6 N6         -5.9914    2.8513   51.6774 N.am    1  ZINC000433961694   -0.6100
      7 C7         -4.8348    2.1152   52.2199 C.3     1  ZINC000433961694    0.1100
      8 C8         -4.0179    1.6872   50.9753 C.3     1  ZINC000433961694   -0.1300
      9 C9         -4.1933    2.9193   50.0487 C.3     1  ZINC000433961694    0.0800
     10 H10        -3.4787    3.7009   50.3070 H       1  ZINC000433961694    0.1000
     11 O11        -4.0552    2.5440   48.6768 O.3     1  ZINC000433961694   -0.2900
     12 C12        -2.8136    2.1916   48.2562 C.ar    1  ZINC000433961694    0.1700
     13 C13        -1.6991    2.4044   49.0637 C.ar    1  ZINC000433961694   -0.2600
     14 C14        -0.4540    2.0323   48.6001 C.ar    1  ZINC000433961694    0.1400
     15 N15        -0.3127    1.4818   47.4092 N.ar    1  ZINC000433961694   -0.5100
     16 C16        -1.3442    1.2641   46.6155 C.ar    1  ZINC000433961694    0.1400
     17 C17        -2.6227    1.6028   47.0088 C.ar    1  ZINC000433961694   -0.2000
     18 C18        -5.6376    3.3720   50.3488 C.3     1  ZINC000433961694    0.0600
     19 S19        -6.4251    2.7265   55.0614 S.3     1  ZINC000433961694    0.2100
     20 C20        -7.4309    1.6824   55.9673 C.2     1  ZINC000433961694    0.0400
     21 C21        -7.2488    1.3676   57.4298 C.3     1  ZINC000433961694    0.1400
     22 O22        -8.3887    0.6507   57.9083 O.3     1  ZINC000433961694   -0.3000
     23 C23        -8.3535   -0.7044   57.8052 C.ar    1  ZINC000433961694    0.1200
     24 C24        -7.2246   -1.4022   58.2083 C.ar    1  ZINC000433961694   -0.1800
     25 C25        -7.1902   -2.7792   58.1030 C.ar    1  ZINC000433961694   -0.1100
     26 C26        -8.2817   -3.4628   57.5949 C.ar    1  ZINC000433961694    0.0600
     27 F27        -8.2467   -4.8094   57.4920 F       1  ZINC000433961694   -0.1400
     28 C28        -9.4095   -2.7675   57.1926 C.ar    1  ZINC000433961694   -0.1100
     29 C29        -9.4488   -1.3909   57.3021 C.ar    1  ZINC000433961694   -0.1200
     30 N30        -8.3743    1.2050   55.2208 N.2     1  ZINC000433961694   -0.4500
     31 H31       -10.2823    1.7734   52.9925 H       1  ZINC000433961694    0.0800
     32 H32        -9.0000    1.0608   51.9844 H       1  ZINC000433961694    0.1000
     33 H33        -9.7628    0.0934   53.2690 H       1  ZINC000433961694    0.0800
     34 H34        -4.2382    2.7649   52.8602 H       1  ZINC000433961694    0.0800
     35 H35        -5.1693    1.2383   52.7741 H       1  ZINC000433961694    0.1000
     36 H36        -2.9689    1.5357   51.2296 H       1  ZINC000433961694    0.1000
     37 H37        -4.4409    0.7920   50.5192 H       1  ZINC000433961694    0.1000
     38 H38        -1.8079    2.8548   50.0393 H       1  ZINC000433961694    0.1400
     39 H39         0.4158    2.1940   49.2195 H       1  ZINC000433961694    0.1600
     40 H40        -1.1863    0.8112   45.6479 H       1  ZINC000433961694    0.1700
     41 H41        -3.4627    1.4217   46.3545 H       1  ZINC000433961694    0.1400
     42 H42        -6.3159    2.9712   49.5955 H       1  ZINC000433961694    0.0900
     43 H43        -5.6907    4.4608   50.3568 H       1  ZINC000433961694    0.0800
     44 H44        -6.3548    0.7581   57.5617 H       1  ZINC000433961694    0.0900
     45 H45        -7.1416    2.2959   57.9908 H       1  ZINC000433961694    0.1000
     46 H46        -6.3727   -0.8692   58.6040 H       1  ZINC000433961694    0.1400
     47 H47        -6.3113   -3.3227   58.4168 H       1  ZINC000433961694    0.1400
     48 H48       -10.2604   -3.3020   56.7967 H       1  ZINC000433961694    0.1500
     49 H49       -10.3286   -0.8488   56.9883 H       1  ZINC000433961694    0.1400
@<TRIPOS>BOND
     1     1     2    1
     2     1    31    1
     3     1    32    1
     4     1    33    1
     5     2    30    1
     6     2     3    2
     7     3     4    1
     8     3    19    1
     9     4     5    2
    10     4     6   am
    11     6    18    1
    12     6     7    1
    13     7     8    1
    14     7    34    1
    15     7    35    1
    16     8     9    1
    17     8    36    1
    18     8    37    1
    19     9    10    1
    20     9    11    1
    21     9    18    1
    22    11    12    1
    23    12    17   ar
    24    12    13   ar
    25    13    14   ar
    26    13    38    1
    27    14    15   ar
    28    14    39    1
    29    15    16   ar
    30    16    17   ar
    31    16    40    1
    32    17    41    1
    33    18    42    1
    34    18    43    1
    35    19    20    1
    36    20    21    1
    37    20    30    2
    38    21    22    1
    39    21    44    1
    40    21    45    1
    41    22    23    1
    42    23    29   ar
    43    23    24   ar
    44    24    25   ar
    45    24    46    1
    46    25    26   ar
    47    25    47    1
    48    26    27    1
    49    26    28   ar
    50    28    29   ar
    51    28    48    1
    52    29    49    1
@<TRIPOS>SUBSTRUCTURE
     1 ZINC000433961694        1 TEMP              0 ****  ****    0 ROOT


##########                                Name:    ZINC000195331548
##########                DOCK_Rotatable_Bonds:                   7
##########                         Heavy_Atoms:                  26
##########                    Molecular_Weight:             378.539
##########                DOCK_Rotatable_Bonds:                   7
##########                       Formal_Charge:          -0.0100004
##########                     HBond_Acceptors:                   7
##########                        HBond_Donors:                   2
##########                         Heavy_Atoms:                  26
##########                          Grid_Score:          -32.022259
##########                     Grid_vdw_energy:          -31.434946
##########                      Grid_es_energy:           -0.587311
##########           Internal_energy_repulsive:           25.254999

@<TRIPOS>MOLECULE
ZINC000195331548
 56 58 1 0 0
SMALL
USER_CHARGES


@<TRIPOS>ATOM
      1 C1        -13.6613   -2.7270   60.1501 C.3     1  ZINC000195331548   -0.0800
      2 C2        -12.8433   -2.8013   58.8866 C.2     1  ZINC000195331548    0.0700
      3 C3        -13.2713   -3.4226   57.7836 C.2     1  ZINC000195331548   -0.2600
      4 S4        -12.0205   -3.2656   56.5527 S.3     1  ZINC000195331548    0.1100
      5 C5        -11.0427   -2.3873   57.6462 C.2     1  ZINC000195331548    0.0600
      6 C6         -9.6754   -1.8376   57.3308 C.3     1  ZINC000195331548   -0.0100
      7 H7         -9.1719   -2.4968   56.6237 H       1  ZINC000195331548    0.1100
      8 C8         -8.8522   -1.7448   58.6186 C.3     1  ZINC000195331548   -0.1200
      9 C9         -7.4868   -1.1298   58.2990 C.3     1  ZINC000195331548   -0.1100
     10 C10        -7.6895    0.2452   57.6585 C.3     1  ZINC000195331548    0.0500
     11 N11        -8.4816    0.1025   56.4303 N.3     1  ZINC000195331548   -0.5200
     12 C12        -8.5790    1.3821   55.7151 C.3     1  ZINC000195331548    0.0400
     13 C13        -8.2196    1.1762   54.2663 C.2     1  ZINC000195331548    0.5100
     14 O14        -8.9422    0.5169   53.5501 O.2     1  ZINC000195331548   -0.4400
     15 N15        -7.0946    1.7252   53.7665 N.am    1  ZINC000195331548   -0.7000
     16 C16        -6.7722    1.5398   52.4711 C.2     1  ZINC000195331548    0.6900
     17 O17        -7.4951    0.8763   51.7538 O.2     1  ZINC000195331548   -0.5300
     18 N18        -5.6481    2.0901   51.9710 N.am    1  ZINC000195331548   -0.7300
     19 C19        -5.2986    1.8900   50.5624 C.3     1  ZINC000195331548    0.1700
     20 H20        -5.9187    1.0975   50.1432 H       1  ZINC000195331548    0.0900
     21 C21        -3.8244    1.4955   50.4538 C.3     1  ZINC000195331548   -0.1300
     22 C22        -2.9541    2.6078   51.0422 C.3     1  ZINC000195331548   -0.1200
     23 C23        -3.1930    3.9057   50.2681 C.3     1  ZINC000195331548   -0.1200
     24 C24        -4.6673    4.3003   50.3766 C.3     1  ZINC000195331548   -0.1100
     25 C25        -5.5376    3.1879   49.7883 C.3     1  ZINC000195331548   -0.1000
     26 H26        -5.2775    3.0391   48.7403 H       1  ZINC000195331548    0.0900
     27 C27        -7.0119    3.5824   49.8970 C.3     1  ZINC000195331548   -0.1500
     28 C28        -9.8146   -0.4420   56.7184 C.3     1  ZINC000195331548    0.0600
     29 N29       -11.6472   -2.2585   58.7788 N.2     1  ZINC000195331548   -0.4700
     30 H30       -14.2855   -1.8337   60.1269 H       1  ZINC000195331548    0.0800
     31 H31       -14.2947   -3.6109   60.2253 H       1  ZINC000195331548    0.0800
     32 H32       -12.9955   -2.6827   61.0120 H       1  ZINC000195331548    0.0800
     33 H33       -14.2184   -3.9284   57.6662 H       1  ZINC000195331548    0.1800
     34 H34        -9.3746   -1.1169   59.3404 H       1  ZINC000195331548    0.0600
     35 H35        -8.7148   -2.7424   59.0357 H       1  ZINC000195331548    0.0700
     36 H36        -6.9122   -1.0218   59.2188 H       1  ZINC000195331548    0.0800
     37 H37        -6.9488   -1.7779   57.6071 H       1  ZINC000195331548    0.0800
     38 H38        -6.7195    0.6797   57.4166 H       1  ZINC000195331548    0.0800
     39 H39        -8.2154    0.8969   58.3562 H       1  ZINC000195331548    0.0400
     40 H40        -7.8919    2.1009   56.1614 H       1  ZINC000195331548    0.1200
     41 H41        -9.5984    1.7614   55.7862 H       1  ZINC000195331548    0.0700
     42 H42        -6.5171    2.2537   54.3392 H       1  ZINC000195331548    0.4100
     43 H43        -5.0706    2.6186   52.5436 H       1  ZINC000195331548    0.4000
     44 H44        -3.5644    1.3466   49.4058 H       1  ZINC000195331548    0.0700
     45 H45        -3.6541    0.5707   51.0052 H       1  ZINC000195331548    0.0700
     46 H46        -1.9037    2.3267   50.9648 H       1  ZINC000195331548    0.0600
     47 H47        -3.2141    2.7566   52.0901 H       1  ZINC000195331548    0.0600
     48 H48        -2.5730    4.6981   50.6873 H       1  ZINC000195331548    0.0600
     49 H49        -2.9330    3.7568   49.2201 H       1  ZINC000195331548    0.0600
     50 H50        -4.9273    4.4491   51.4247 H       1  ZINC000195331548    0.0600
     51 H51        -4.8376    5.2249   49.8252 H       1  ZINC000195331548    0.0700
     52 H52        -7.2719    3.7312   50.9449 H       1  ZINC000195331548    0.0500
     53 H53        -7.1821    4.5071   49.3454 H       1  ZINC000195331548    0.0600
     54 H54        -7.6319    2.7900   49.4778 H       1  ZINC000195331548    0.0600
     55 H55       -10.3305    0.2129   57.4205 H       1  ZINC000195331548    0.0400
     56 H56       -10.3881   -0.5068   55.7937 H       1  ZINC000195331548    0.0900
@<TRIPOS>BOND
     1     1     2    1
     2     1    30    1
     3     1    31    1
     4     1    32    1
     5     2    29    1
     6     2     3    2
     7     3     4    1
     8     3    33    1
     9     4     5    1
    10     5     6    1
    11     5    29    2
    12     6     7    1
    13     6    28    1
    14     6     8    1
    15     8     9    1
    16     8    34    1
    17     8    35    1
    18     9    10    1
    19     9    36    1
    20     9    37    1
    21    10    11    1
    22    10    38    1
    23    10    39    1
    24    11    12    1
    25    11    28    1
    26    12    13    1
    27    12    40    1
    28    12    41    1
    29    13    14    2
    30    13    15   am
    31    15    16   am
    32    15    42    1
    33    16    17    2
    34    16    18   am
    35    18    19    1
    36    18    43    1
    37    19    20    1
    38    19    25    1
    39    19    21    1
    40    21    22    1
    41    21    44    1
    42    21    45    1
    43    22    23    1
    44    22    46    1
    45    22    47    1
    46    23    24    1
    47    23    48    1
    48    23    49    1
    49    24    25    1
    50    24    50    1
    51    24    51    1
    52    25    26    1
    53    25    27    1
    54    27    52    1
    55    27    53    1
    56    27    54    1
    57    28    55    1
    58    28    56    1
@<TRIPOS>SUBSTRUCTURE
     1 ZINC000195331548        1 TEMP              0 ****  ****    0 ROOT


##########                                Name:    ZINC000883773972
##########                DOCK_Rotatable_Bonds:                   4
##########                         Heavy_Atoms:                  23
##########                    Molecular_Weight:             343.447
##########                DOCK_Rotatable_Bonds:                   4
##########                       Formal_Charge:                0.01
##########                     HBond_Acceptors:                   8
##########                        HBond_Donors:                   1
##########                         Heavy_Atoms:                  23
##########                          Grid_Score:          -32.012173
##########                     Grid_vdw_energy:          -31.583509
##########                      Grid_es_energy:           -0.428665
##########           Internal_energy_repulsive:            4.888471

@<TRIPOS>MOLECULE
ZINC000883773972
 48 50 1 0 0
SMALL
USER_CHARGES


@<TRIPOS>ATOM
      1 C1          1.7167    1.4033   43.8237 C.3     1  ZINC000883773972   -0.1700
      2 C2          1.8430    0.7892   45.1941 C.2     1  ZINC000883773972    0.5300
      3 O3          2.8534    0.1924   45.5005 O.2     1  ZINC000883773972   -0.5400
      4 N4          0.8331    0.9034   46.0793 N.am    1  ZINC000883773972   -0.6200
      5 C5         -0.4529    1.5868   45.8637 C.3     1  ZINC000883773972    0.1100
      6 C6         -1.4923    0.8314   46.7084 C.3     1  ZINC000883773972   -0.1100
      7 H7         -2.1176    0.1813   46.0965 H       1  ZINC000883773972    0.1000
      8 C8         -2.3295    1.8423   47.5098 C.3     1  ZINC000883773972    0.1300
      9 N9         -2.3548    1.3525   48.8978 N.am    1  ZINC000883773972   -0.6400
     10 C10        -3.3518    1.5127   49.7905 C.2     1  ZINC000883773972    0.7300
     11 O11        -3.2441    1.0533   50.9111 O.2     1  ZINC000883773972   -0.5800
     12 N12        -4.4682    2.1821   49.4409 N.am    1  ZINC000883773972   -0.7400
     13 C13        -5.5526    2.3547   50.4107 C.3     1  ZINC000883773972    0.1800
     14 H14        -5.1290    2.5282   51.4000 H       1  ZINC000883773972    0.1100
     15 C15        -6.4061    3.5538   50.0080 C.3     1  ZINC000883773972   -0.1500
     16 C16        -7.3863    3.9142   51.1205 C.3     1  ZINC000883773972   -0.1000
     17 C17        -8.4646    2.8345   51.2377 C.3     1  ZINC000883773972   -0.5600
     18 H18        -8.9610    2.7088   50.2755 H       1  ZINC000883773972    0.1400
     19 C19        -9.4915    3.2490   52.2934 C.3     1  ZINC000883773972   -0.1400
     20 S20        -7.6833    1.2693   51.7277 S.o2    1  ZINC000883773972    2.4200
     21 O21        -7.0404    1.4548   52.9813 O.2     1  ZINC000883773972   -0.9200
     22 O22        -8.6324    0.2219   51.5812 O.2     1  ZINC000883773972   -0.9300
     23 C23        -6.4129    1.0895   50.4413 C.3     1  ZINC000883773972   -0.6300
     24 C24        -1.0785    0.6534   49.1204 C.3     1  ZINC000883773972    0.1100
     25 C25        -0.6703    0.0320   47.7493 C.3     1  ZINC000883773972   -0.1100
     26 H26        -0.8657   -1.0398   47.7153 H       1  ZINC000883773972    0.1000
     27 C27         0.7979    0.3635   47.4484 C.3     1  ZINC000883773972    0.1100
     28 H28         2.6252    1.2092   43.2534 H       1  ZINC000883773972    0.0900
     29 H29         0.8628    0.9656   43.3066 H       1  ZINC000883773972    0.0900
     30 H30         1.5710    2.4792   43.9196 H       1  ZINC000883773972    0.0900
     31 H31        -0.3853    2.6237   46.1929 H       1  ZINC000883773972    0.0800
     32 H32        -0.7263    1.5455   44.8093 H       1  ZINC000883773972    0.0900
     33 H33        -1.8655    2.8278   47.4692 H       1  ZINC000883773972    0.0700
     34 H34        -3.3428    1.8887   47.1108 H       1  ZINC000883773972    0.0900
     35 H35        -4.5536    2.5497   48.5474 H       1  ZINC000883773972    0.4000
     36 H36        -5.7569    4.4068   49.8109 H       1  ZINC000883773972    0.0900
     37 H37        -6.9632    3.3105   49.1032 H       1  ZINC000883773972    0.0800
     38 H38        -6.8485    3.9924   52.0653 H       1  ZINC000883773972    0.0900
     39 H39        -7.8559    4.8712   50.8928 H       1  ZINC000883773972    0.0900
     40 H40        -9.9530    4.1920   52.0007 H       1  ZINC000883773972    0.0800
     41 H41       -10.2587    2.4791   52.3759 H       1  ZINC000883773972    0.0700
     42 H42        -8.9942    3.3709   53.2557 H       1  ZINC000883773972    0.0800
     43 H43        -6.8923    0.9483   49.4725 H       1  ZINC000883773972    0.1400
     44 H44        -5.7840    0.2285   50.6674 H       1  ZINC000883773972    0.1400
     45 H45        -0.3197    1.3586   49.4594 H       1  ZINC000883773972    0.0800
     46 H46        -1.2095   -0.1389   49.8575 H       1  ZINC000883773972    0.0800
     47 H47         1.4091   -0.5352   47.5321 H       1  ZINC000883773972    0.0900
     48 H48         1.1580    1.1270   48.1380 H       1  ZINC000883773972    0.0700
@<TRIPOS>BOND
     1     1     2    1
     2     1    28    1
     3     1    29    1
     4     1    30    1
     5     2     3    2
     6     2     4   am
     7     4    27    1
     8     4     5    1
     9     5     6    1
    10     5    31    1
    11     5    32    1
    12     6     7    1
    13     6    25    1
    14     6     8    1
    15     8     9    1
    16     8    33    1
    17     8    34    1
    18     9    10   am
    19     9    24    1
    20    10    11    2
    21    10    12   am
    22    12    13    1
    23    12    35    1
    24    13    14    1
    25    13    23    1
    26    13    15    1
    27    15    16    1
    28    15    36    1
    29    15    37    1
    30    16    17    1
    31    16    38    1
    32    16    39    1
    33    17    18    1
    34    17    19    1
    35    17    20    1
    36    19    40    1
    37    19    41    1
    38    19    42    1
    39    20    21    2
    40    20    22    2
    41    20    23    1
    42    23    43    1
    43    23    44    1
    44    24    25    1
    45    24    45    1
    46    24    46    1
    47    25    26    1
    48    25    27    1
    49    27    47    1
    50    27    48    1
@<TRIPOS>SUBSTRUCTURE
     1 ZINC000883773972        1 TEMP              0 ****  ****    0 ROOT


##########                                Name:    ZINC000992031068
##########                DOCK_Rotatable_Bonds:                   8
##########                         Heavy_Atoms:                  25
##########                    Molecular_Weight:             342.401
##########                DOCK_Rotatable_Bonds:                   8
##########                       Formal_Charge:           0.0199999
##########                     HBond_Acceptors:                   8
##########                        HBond_Donors:                   2
##########                         Heavy_Atoms:                  25
##########                          Grid_Score:          -31.989319
##########                     Grid_vdw_energy:          -31.601469
##########                      Grid_es_energy:           -0.387850
##########           Internal_energy_repulsive:            6.478047

@<TRIPOS>MOLECULE
ZINC000992031068
 47 49 1 0 0
SMALL
USER_CHARGES


@<TRIPOS>ATOM
      1 C1          0.5170    1.0707   46.6065 C.3     1  ZINC000992031068   -0.1100
      2 C2         -0.8964    1.4965   46.9103 C.ar    1  ZINC000992031068    0.1800
      3 C3         -1.3951    1.4069   48.2021 C.ar    1  ZINC000992031068   -0.1700
      4 C4         -2.7097    1.8138   48.4327 C.ar    1  ZINC000992031068    0.1300
      5 C5         -3.2945    1.7402   49.7951 C.2     1  ZINC000992031068    0.5700
      6 O6         -2.6248    1.3307   50.7222 O.2     1  ZINC000992031068   -0.5200
      7 N7         -4.5684    2.1275   50.0035 N.am    1  ZINC000992031068   -0.7100
      8 C8         -5.1450    2.0566   51.3484 C.3     1  ZINC000992031068    0.1300
      9 C9         -6.6717    2.0474   51.2490 C.3     1  ZINC000992031068   -0.1200
     10 C10        -7.2729    0.6370   51.1299 C.3     1  ZINC000992031068   -0.1400
     11 C11        -8.3859    1.1168   52.0763 C.3     1  ZINC000992031068    0.1200
     12 N12        -8.7840    0.1158   53.0692 N.am    1  ZINC000992031068   -0.7200
     13 C13        -9.5895    0.4644   54.0920 C.2     1  ZINC000992031068    0.5200
     14 O14        -9.9859    1.6063   54.1896 O.2     1  ZINC000992031068   -0.5200
     15 C15        -9.9975   -0.5650   55.1143 C.3     1  ZINC000992031068   -0.0800
     16 C16        -8.9613   -0.6260   56.2068 C.2     1  ZINC000992031068    0.1000
     17 C17        -8.1614    0.3900   56.6053 C.2     1  ZINC000992031068   -0.2500
     18 C18        -7.3487   -0.0829   57.6409 C.2     1  ZINC000992031068    0.0500
     19 N19        -7.6500   -1.3377   57.8564 N.2     1  ZINC000992031068   -0.2900
     20 N20        -8.6692   -1.7021   56.9670 N.pl3   1  ZINC000992031068   -0.3700
     21 C21        -9.2999   -3.0210   56.8727 C.3     1  ZINC000992031068    0.1000
     22 C22        -7.3784    2.1481   52.6111 C.3     1  ZINC000992031068   -0.1400
     23 N23        -3.4304    2.2696   47.4109 N.ar    1  ZINC000992031068   -0.5000
     24 C24        -2.9156    2.3368   46.2019 C.ar    1  ZINC000992031068    0.3000
     25 N25        -1.6754    1.9652   45.9505 N.ar    1  ZINC000992031068   -0.5100
     26 H26         1.1873    1.9212   46.7312 H       1  ZINC000992031068    0.0900
     27 H27         0.8109    0.2734   47.2891 H       1  ZINC000992031068    0.0900
     28 H28         0.5750    0.7099   45.5796 H       1  ZINC000992031068    0.0900
     29 H29        -0.7818    1.0316   49.0080 H       1  ZINC000992031068    0.1600
     30 H30        -5.1036    2.4534   49.2630 H       1  ZINC000992031068    0.4100
     31 H31        -4.8074    1.1446   51.8408 H       1  ZINC000992031068    0.0700
     32 H32        -4.8237    2.9224   51.9276 H       1  ZINC000992031068    0.0800
     33 H33        -7.0517    2.7496   50.5070 H       1  ZINC000992031068    0.1000
     34 H34        -7.6260    0.3962   50.1272 H       1  ZINC000992031068    0.0800
     35 H35        -6.6430   -0.1435   51.5568 H       1  ZINC000992031068    0.0900
     36 H36        -9.2362    1.5622   51.5600 H       1  ZINC000992031068    0.1200
     37 H37        -8.4679   -0.7978   52.9904 H       1  ZINC000992031068    0.4000
     38 H38       -10.9613   -0.2897   55.5425 H       1  ZINC000992031068    0.1200
     39 H39       -10.0782   -1.5407   54.6351 H       1  ZINC000992031068    0.1100
     40 H40        -8.1517    1.3892   56.1958 H       1  ZINC000992031068    0.1500
     41 H41        -6.6011    0.4889   58.1707 H       1  ZINC000992031068    0.1800
     42 H42       -10.1612   -3.0604   57.5396 H       1  ZINC000992031068    0.0800
     43 H43        -9.6262   -3.1952   55.8473 H       1  ZINC000992031068    0.0800
     44 H44        -8.5817   -3.7886   57.1607 H       1  ZINC000992031068    0.0900
     45 H45        -6.7774    1.7808   53.4431 H       1  ZINC000992031068    0.0900
     46 H46        -7.8167    3.1272   52.8043 H       1  ZINC000992031068    0.0800
     47 H47        -3.5250    2.7111   45.3927 H       1  ZINC000992031068    0.2100
@<TRIPOS>BOND
     1     1     2    1
     2     1    26    1
     3     1    27    1
     4     1    28    1
     5     2    25   ar
     6     2     3   ar
     7     3     4   ar
     8     3    29    1
     9     4     5    1
    10     4    23   ar
    11     5     6    2
    12     5     7   am
    13     7     8    1
    14     7    30    1
    15     8     9    1
    16     8    31    1
    17     8    32    1
    18     9    22    1
    19     9    10    1
    20     9    33    1
    21    10    11    1
    22    10    34    1
    23    10    35    1
    24    11    12    1
    25    11    22    1
    26    11    36    1
    27    12    13   am
    28    12    37    1
    29    13    14    2
    30    13    15    1
    31    15    16    1
    32    15    38    1
    33    15    39    1
    34    16    20    1
    35    16    17    2
    36    17    18    1
    37    17    40    1
    38    18    19    2
    39    18    41    1
    40    19    20    1
    41    20    21    1
    42    21    42    1
    43    21    43    1
    44    21    44    1
    45    22    45    1
    46    22    46    1
    47    23    24   ar
    48    24    25   ar
    49    24    47    1
@<TRIPOS>SUBSTRUCTURE
     1 ZINC000992031068        1 TEMP              0 ****  ****    0 ROOT


##########                                Name:    ZINC000501032137
##########                DOCK_Rotatable_Bonds:                  10
##########                         Heavy_Atoms:                  25
##########                    Molecular_Weight:             407.307
##########                DOCK_Rotatable_Bonds:                  10
##########                       Formal_Charge:           0.0099998
##########                     HBond_Acceptors:                   5
##########                        HBond_Donors:                   1
##########                         Heavy_Atoms:                  25
##########                          Grid_Score:          -31.986427
##########                     Grid_vdw_energy:          -30.387560
##########                      Grid_es_energy:           -1.598868
##########           Internal_energy_repulsive:           11.538521

@<TRIPOS>MOLECULE
ZINC000501032137
 48 50 1 0 0
SMALL
USER_CHARGES


@<TRIPOS>ATOM
      1 C1         -5.1881    2.5942   56.3656 C.3     1  ZINC000501032137   -0.1500
      2 C2         -5.8562    2.2377   55.0361 C.3     1  ZINC000501032137   -0.1200
      3 C3         -5.5980    3.3525   54.0205 C.3     1  ZINC000501032137    0.0600
      4 O4         -6.2837    3.0553   52.8025 O.3     1  ZINC000501032137   -0.3800
      5 C5         -5.6397    2.0636   52.0001 C.3     1  ZINC000501032137    0.0500
      6 C6         -5.3847    2.6267   50.6005 C.3     1  ZINC000501032137    0.1600
      7 H7         -5.4060    1.8153   49.8730 H       1  ZINC000501032137    0.1000
      8 C8         -4.0144    3.3065   50.5662 C.3     1  ZINC000501032137   -0.0900
      9 C9         -3.0545    2.4619   49.7686 C.ar    1  ZINC000501032137   -0.0600
     10 C10        -2.0965    1.7054   50.4172 C.ar    1  ZINC000501032137   -0.0900
     11 C11        -1.2155    0.9303   49.6859 C.ar    1  ZINC000501032137   -0.1100
     12 C12        -1.2923    0.9117   48.3062 C.ar    1  ZINC000501032137   -0.0900
     13 C13        -2.2510    1.6687   47.6567 C.ar    1  ZINC000501032137   -0.0800
     14 Br14       -2.3566    1.6437   45.7688 Br      1  ZINC000501032137   -0.0600
     15 C15        -3.1358    2.4395   48.3888 C.ar    1  ZINC000501032137   -0.0800
     16 N16        -6.4237    3.6054   50.2711 N.am    1  ZINC000501032137   -0.7100
     17 C17        -7.6216    3.1890   49.8149 C.2     1  ZINC000501032137    0.6100
     18 O18        -7.8403    2.0005   49.6781 O.2     1  ZINC000501032137   -0.5200
     19 C19        -8.6665    4.1739   49.4817 C.2     1  ZINC000501032137   -0.0800
     20 C20        -8.6415    5.5054   49.7622 C.2     1  ZINC000501032137    0.0800
     21 C21        -7.5416    6.2520   50.4719 C.3     1  ZINC000501032137   -0.0800
     22 C22        -7.9010    7.5899   51.1214 C.3     1  ZINC000501032137   -0.1700
     23 C23        -7.6320    6.3631   51.9952 C.3     1  ZINC000501032137   -0.1500
     24 O24        -9.7831    6.0272   49.2858 O.3     1  ZINC000501032137   -0.2000
     25 C25       -10.4941    5.0388   48.7250 C.2     1  ZINC000501032137    0.1800
     26 N26        -9.8349    3.9241   48.8307 N.2     1  ZINC000501032137   -0.4600
     27 H27        -4.1144    2.7061   56.2141 H       1  ZINC000501032137    0.0600
     28 H28        -5.6017    3.5302   56.7406 H       1  ZINC000501032137    0.0600
     29 H29        -5.3720    1.8000   57.0891 H       1  ZINC000501032137    0.0600
     30 H30        -5.4426    1.3015   54.6611 H       1  ZINC000501032137    0.0700
     31 H31        -6.9298    2.1257   55.1876 H       1  ZINC000501032137    0.0700
     32 H32        -5.9610    4.2993   54.4202 H       1  ZINC000501032137    0.0500
     33 H33        -4.5280    3.4264   53.8264 H       1  ZINC000501032137    0.0500
     34 H34        -4.6906    1.7855   52.4583 H       1  ZINC000501032137    0.0700
     35 H35        -6.2794    1.1840   51.9269 H       1  ZINC000501032137    0.0600
     36 H36        -4.1073    4.2880   50.1015 H       1  ZINC000501032137    0.0900
     37 H37        -3.6397    3.4202   51.5834 H       1  ZINC000501032137    0.0800
     38 H38        -2.0360    1.7200   51.4954 H       1  ZINC000501032137    0.1200
     39 H39        -0.4669    0.3396   50.1930 H       1  ZINC000501032137    0.1300
     40 H40        -0.6039    0.3064   47.7351 H       1  ZINC000501032137    0.1300
     41 H41        -3.8845    3.0304   47.8822 H       1  ZINC000501032137    0.1200
     42 H42        -6.2496    4.5533   50.3814 H       1  ZINC000501032137    0.4100
     43 H43        -6.5487    6.1561   50.0323 H       1  ZINC000501032137    0.1500
     44 H44        -7.1444    8.3746   51.1091 H       1  ZINC000501032137    0.1100
     45 H45        -8.9328    7.9300   51.0355 H       1  ZINC000501032137    0.1000
     46 H46        -8.4870    5.8961   52.4841 H       1  ZINC000501032137    0.1000
     47 H47        -6.6986    6.3407   52.5578 H       1  ZINC000501032137    0.1100
     48 H48       -11.4605    5.1518   48.2563 H       1  ZINC000501032137    0.2500
@<TRIPOS>BOND
     1     1     2    1
     2     1    27    1
     3     1    28    1
     4     1    29    1
     5     2     3    1
     6     2    30    1
     7     2    31    1
     8     3     4    1
     9     3    32    1
    10     3    33    1
    11     4     5    1
    12     5     6    1
    13     5    34    1
    14     5    35    1
    15     6     7    1
    16     6     8    1
    17     6    16    1
    18     8     9    1
    19     8    36    1
    20     8    37    1
    21     9    15   ar
    22     9    10   ar
    23    10    11   ar
    24    10    38    1
    25    11    12   ar
    26    11    39    1
    27    12    13   ar
    28    12    40    1
    29    13    14    1
    30    13    15   ar
    31    15    41    1
    32    16    17   am
    33    16    42    1
    34    17    18    2
    35    17    19    1
    36    19    26    1
    37    19    20    2
    38    20    21    1
    39    20    24    1
    40    21    23    1
    41    21    22    1
    42    21    43    1
    43    22    23    1
    44    22    44    1
    45    22    45    1
    46    23    46    1
    47    23    47    1
    48    24    25    1
    49    25    26    2
    50    25    48    1
@<TRIPOS>SUBSTRUCTURE
     1 ZINC000501032137        1 TEMP              0 ****  ****    0 ROOT


##########                                Name:    ZINC000744839011
##########                DOCK_Rotatable_Bonds:                  10
##########                         Heavy_Atoms:                  24
##########                    Molecular_Weight:              378.83
##########                DOCK_Rotatable_Bonds:                  10
##########                       Formal_Charge:           0.0300002
##########                     HBond_Acceptors:                   9
##########                        HBond_Donors:                   0
##########                         Heavy_Atoms:                  24
##########                          Grid_Score:          -31.985283
##########                     Grid_vdw_energy:          -32.045998
##########                      Grid_es_energy:            0.060715
##########           Internal_energy_repulsive:           13.109914

@<TRIPOS>MOLECULE
ZINC000744839011
 43 43 1 0 0
SMALL
USER_CHARGES


@<TRIPOS>ATOM
      1 C1         -9.2710   -0.2411   54.7051 C.3     1  ZINC000744839011    0.0400
      2 O2         -9.9112    0.7234   53.8285 O.3     1  ZINC000744839011   -0.3600
      3 C3         -9.8181    0.5013   52.5028 C.2     1  ZINC000744839011    0.5100
      4 O4        -10.5705   -0.2865   51.9644 O.2     1  ZINC000744839011   -0.5000
      5 C5         -8.8031    1.2142   51.7052 C.ar    1  ZINC000744839011   -0.1600
      6 C6         -7.6993    0.5237   51.1971 C.ar    1  ZINC000744839011   -0.0100
      7 C7         -6.7536    1.1928   50.4523 C.ar    1  ZINC000744839011   -0.2100
      8 C8         -6.8952    2.5528   50.2053 C.ar    1  ZINC000744839011    0.1800
      9 O9         -5.9608    3.2082   49.4708 O.3     1  ZINC000744839011   -0.2900
     10 C10        -4.6987    3.4518   50.0951 C.3     1  ZINC000744839011    0.0500
     11 C11        -3.6028    2.6945   49.3424 C.3     1  ZINC000744839011    0.0600
     12 O12        -3.7358    2.9404   47.9176 O.3     1  ZINC000744839011   -0.3400
     13 C13        -2.9790    2.1946   47.0972 C.2     1  ZINC000744839011    0.5000
     14 O14        -3.1697    2.2259   45.9045 O.2     1  ZINC000744839011   -0.4900
     15 C15        -1.8917    1.3184   47.6638 C.3     1  ZINC000744839011   -0.6400
     16 S16        -0.7445    0.8464   46.3404 S.o2    1  ZINC000744839011    2.4400
     17 O17         0.3769    0.1969   46.9234 O.2     1  ZINC000744839011   -0.9100
     18 O18        -1.4782    0.1823   45.3206 O.2     1  ZINC000744839011   -0.9100
     19 C19        -0.2133    2.4626   45.7107 C.3     1  ZINC000744839011   -0.5700
     20 C20         0.4597    3.2520   46.8355 C.3     1  ZINC000744839011   -0.1500
     21 C21         0.7794    2.2620   44.5638 C.3     1  ZINC000744839011   -0.1500
     22 C22        -7.9926    3.2444   50.7084 C.ar    1  ZINC000744839011   -0.0800
     23 Cl23       -8.1643    4.9435   50.3959 Cl      1  ZINC000744839011   -0.0400
     24 C24        -8.9454    2.5816   51.4502 C.ar    1  ZINC000744839011   -0.0100
     25 H25        -9.7078   -1.2264   54.5418 H       1  ZINC000744839011    0.0700
     26 H26        -8.2033   -0.2765   54.4883 H       1  ZINC000744839011    0.0700
     27 H27        -9.4214    0.0554   55.7431 H       1  ZINC000744839011    0.1100
     28 H28        -7.5878   -0.5333   51.3889 H       1  ZINC000744839011    0.1500
     29 H29        -5.9003    0.6596   50.0599 H       1  ZINC000744839011    0.1500
     30 H30        -4.4828    4.5200   50.0734 H       1  ZINC000744839011    0.0900
     31 H31        -4.7326    3.1090   51.1292 H       1  ZINC000744839011    0.1000
     32 H32        -2.6255    3.0386   49.6808 H       1  ZINC000744839011    0.1100
     33 H33        -3.6996    1.6265   49.5374 H       1  ZINC000744839011    0.0900
     34 H34        -1.3505    1.8646   48.4363 H       1  ZINC000744839011    0.1700
     35 H35        -2.3360    0.4220   48.0964 H       1  ZINC000744839011    0.1700
     36 H36        -1.0807    3.0143   45.3483 H       1  ZINC000744839011    0.1400
     37 H37         0.7788    4.2231   46.4572 H       1  ZINC000744839011    0.0900
     38 H38        -0.2475    3.3949   47.6526 H       1  ZINC000744839011    0.0700
     39 H39         1.3271    2.7003   47.1980 H       1  ZINC000744839011    0.0800
     40 H40         0.3000    1.6997   43.7626 H       1  ZINC000744839011    0.0800
     41 H41         1.0986    3.2332   44.1856 H       1  ZINC000744839011    0.0900
     42 H42         1.6467    1.7104   44.9263 H       1  ZINC000744839011    0.0800
     43 H43        -9.7970    3.1188   51.8407 H       1  ZINC000744839011    0.1600
@<TRIPOS>BOND
     1     1     2    1
     2     1    25    1
     3     1    26    1
     4     1    27    1
     5     2     3    1
     6     3     4    2
     7     3     5    1
     8     5    24   ar
     9     5     6   ar
    10     6     7   ar
    11     6    28    1
    12     7     8   ar
    13     7    29    1
    14     8     9    1
    15     8    22   ar
    16     9    10    1
    17    10    11    1
    18    10    30    1
    19    10    31    1
    20    11    12    1
    21    11    32    1
    22    11    33    1
    23    12    13    1
    24    13    14    2
    25    13    15    1
    26    15    16    1
    27    15    34    1
    28    15    35    1
    29    16    17    2
    30    16    18    2
    31    16    19    1
    32    19    20    1
    33    19    21    1
    34    19    36    1
    35    20    37    1
    36    20    38    1
    37    20    39    1
    38    21    40    1
    39    21    41    1
    40    21    42    1
    41    22    23    1
    42    22    24   ar
    43    24    43    1
@<TRIPOS>SUBSTRUCTURE
     1 ZINC000744839011        1 TEMP              0 ****  ****    0 ROOT


##########                                Name:    ZINC000762020937
##########                DOCK_Rotatable_Bonds:                  10
##########                         Heavy_Atoms:                  28
##########                    Molecular_Weight:             391.467
##########                DOCK_Rotatable_Bonds:                  10
##########                       Formal_Charge:         -1.8999e-07
##########                     HBond_Acceptors:                   8
##########                        HBond_Donors:                   1
##########                         Heavy_Atoms:                  28
##########                          Grid_Score:          -31.975893
##########                     Grid_vdw_energy:          -32.220387
##########                      Grid_es_energy:            0.244493
##########           Internal_energy_repulsive:           25.182337

@<TRIPOS>MOLECULE
ZINC000762020937
 57 58 1 0 0
SMALL
USER_CHARGES


@<TRIPOS>ATOM
      1 C1         -8.2758   -5.3888   58.3502 C.3     1  ZINC000762020937    0.0200
      2 O2         -8.3344   -4.5283   57.2108 O.3     1  ZINC000762020937   -0.3000
      3 C3         -8.2779   -3.1899   57.4443 C.ar    1  ZINC000762020937    0.1100
      4 C4         -7.1802   -2.6434   58.0888 C.ar    1  ZINC000762020937   -0.1700
      5 C5         -7.1241   -1.2821   58.3252 C.ar    1  ZINC000762020937   -0.1000
      6 C6         -8.1616   -0.4639   57.9200 C.ar    1  ZINC000762020937   -0.1000
      7 C7         -8.0955    1.0190   58.1804 C.3     1  ZINC000762020937    0.0200
      8 C8         -7.1636    1.6625   57.1863 C.2     1  ZINC000762020937    0.1900
      9 N9         -7.4872    2.1420   56.0095 N.2     1  ZINC000762020937   -0.4700
     10 C10        -6.3424    2.6118   55.4827 C.2     1  ZINC000762020937    0.1600
     11 C11        -6.1836    3.2663   54.1346 C.3     1  ZINC000762020937    0.2600
     12 H12        -5.7142    4.2424   54.2575 H       1  ZINC000762020937    0.1200
     13 N13        -5.3432    2.4247   53.2792 N.am    1  ZINC000762020937   -0.7100
     14 C14        -4.1407    2.8720   52.8661 C.2     1  ZINC000762020937    0.6600
     15 O15        -3.7530    3.9728   53.2045 O.2     1  ZINC000762020937   -0.5600
     16 O16        -3.3692    2.0991   52.0787 O.3     1  ZINC000762020937   -0.3600
     17 C17        -3.0985    2.5870   50.7381 C.3     1  ZINC000762020937    0.1400
     18 C18        -4.3206    3.3441   50.2144 C.3     1  ZINC000762020937   -0.1800
     19 C19        -1.8918    3.5270   50.7715 C.3     1  ZINC000762020937   -0.1400
     20 C20        -2.7979    1.4037   49.8158 C.3     1  ZINC000762020937   -0.1800
     21 C21        -7.5586    3.4397   53.4866 C.3     1  ZINC000762020937   -0.1000
     22 C22        -7.7862    4.9172   53.1608 C.3     1  ZINC000762020937   -0.1400
     23 C23        -7.6225    2.6175   52.1979 C.3     1  ZINC000762020937   -0.1400
     24 N24        -5.3985    2.3983   56.3499 N.2     1  ZINC000762020937   -0.3700
     25 O25        -5.8503    1.8589   57.3380 O.3     1  ZINC000762020937    0.0900
     26 C26        -9.2601   -1.0029   57.2757 C.ar    1  ZINC000762020937   -0.1500
     27 C27        -9.3203   -2.3651   57.0311 C.ar    1  ZINC000762020937    0.1000
     28 O28       -10.3998   -2.8967   56.3977 O.3     1  ZINC000762020937   -0.3100
     29 C29       -11.4534   -3.3991   57.2221 C.3     1  ZINC000762020937    0.0200
     30 H30        -7.3390   -5.2237   58.8824 H       1  ZINC000762020937    0.0600
     31 H31        -9.1134   -5.1715   59.0131 H       1  ZINC000762020937    0.0600
     32 H32        -8.3303   -6.4275   58.0243 H       1  ZINC000762020937    0.1000
     33 H33        -6.3683   -3.2807   58.4071 H       1  ZINC000762020937    0.1400
     34 H34        -6.2676   -0.8573   58.8278 H       1  ZINC000762020937    0.1300
     35 H35        -9.0911    1.4506   58.0774 H       1  ZINC000762020937    0.1200
     36 H36        -7.7261    1.1942   59.1909 H       1  ZINC000762020937    0.1200
     37 H37        -5.6522    1.5455   53.0101 H       1  ZINC000762020937    0.4100
     38 H38        -4.5348    4.1870   50.8715 H       1  ZINC000762020937    0.0600
     39 H39        -4.1174    3.7103   49.2082 H       1  ZINC000762020937    0.0700
     40 H40        -5.1802    2.6743   50.1908 H       1  ZINC000762020937    0.0900
     41 H41        -1.0212    2.9876   51.1445 H       1  ZINC000762020937    0.0700
     42 H42        -1.6887    3.8933   49.7651 H       1  ZINC000762020937    0.0800
     43 H43        -2.1061    4.3699   51.4284 H       1  ZINC000762020937    0.0700
     44 H44        -3.6575    0.7340   49.7922 H       1  ZINC000762020937    0.0900
     45 H45        -2.5947    1.7699   48.8095 H       1  ZINC000762020937    0.0700
     46 H46        -1.9273    0.8644   50.1889 H       1  ZINC000762020937    0.0600
     47 H47        -8.3307    3.0964   54.1752 H       1  ZINC000762020937    0.0800
     48 H48        -7.0142    5.2605   52.4721 H       1  ZINC000762020937    0.0600
     49 H49        -8.7659    5.0407   52.6991 H       1  ZINC000762020937    0.0600
     50 H50        -7.7407    5.5029   54.0788 H       1  ZINC000762020937    0.0500
     51 H51        -7.4604    1.5649   52.4300 H       1  ZINC000762020937    0.0500
     52 H52        -8.6022    2.7411   51.7362 H       1  ZINC000762020937    0.0600
     53 H53        -6.8505    2.9608   51.5093 H       1  ZINC000762020937    0.0700
     54 H54       -10.0695   -0.3613   56.9601 H       1  ZINC000762020937    0.1400
     55 H55       -11.8453   -2.5929   57.8423 H       1  ZINC000762020937    0.0600
     56 H56       -12.2508   -3.7937   56.5924 H       1  ZINC000762020937    0.1000
     57 H57       -11.0677   -4.1939   57.8605 H       1  ZINC000762020937    0.0600
@<TRIPOS>BOND
     1     1     2    1
     2     1    30    1
     3     1    31    1
     4     1    32    1
     5     2     3    1
     6     3    27   ar
     7     3     4   ar
     8     4     5   ar
     9     4    33    1
    10     5     6   ar
    11     5    34    1
    12     6     7    1
    13     6    26   ar
    14     7     8    1
    15     7    35    1
    16     7    36    1
    17     8    25    1
    18     8     9    2
    19     9    10    1
    20    10    11    1
    21    10    24    2
    22    11    12    1
    23    11    13    1
    24    11    21    1
    25    13    14   am
    26    13    37    1
    27    14    15    2
    28    14    16    1
    29    16    17    1
    30    17    18    1
    31    17    19    1
    32    17    20    1
    33    18    38    1
    34    18    39    1
    35    18    40    1
    36    19    41    1
    37    19    42    1
    38    19    43    1
    39    20    44    1
    40    20    45    1
    41    20    46    1
    42    21    22    1
    43    21    23    1
    44    21    47    1
    45    22    48    1
    46    22    49    1
    47    22    50    1
    48    23    51    1
    49    23    52    1
    50    23    53    1
    51    24    25    1
    52    26    27   ar
    53    26    54    1
    54    27    28    1
    55    28    29    1
    56    29    55    1
    57    29    56    1
    58    29    57    1
@<TRIPOS>SUBSTRUCTURE
     1 ZINC000762020937        1 TEMP              0 ****  ****    0 ROOT


##########                                Name:    ZINC000450219577
##########                DOCK_Rotatable_Bonds:                   8
##########                         Heavy_Atoms:                  26
##########                    Molecular_Weight:             353.421
##########                DOCK_Rotatable_Bonds:                   8
##########                       Formal_Charge:          -0.0199997
##########                     HBond_Acceptors:                   6
##########                        HBond_Donors:                   1
##########                         Heavy_Atoms:                  26
##########                          Grid_Score:          -31.958185
##########                     Grid_vdw_energy:          -30.860929
##########                      Grid_es_energy:           -1.097256
##########           Internal_energy_repulsive:           20.937218

@<TRIPOS>MOLECULE
ZINC000450219577
 49 51 1 0 0
SMALL
USER_CHARGES


@<TRIPOS>ATOM
      1 C1         -8.2983    2.3214   59.7073 C.3     1  ZINC000450219577   -0.1800
      2 C2         -9.0528    1.0575   60.1249 C.3     1  ZINC000450219577    0.1200
      3 C3         -8.0501   -0.0233   60.5340 C.3     1  ZINC000450219577   -0.1800
      4 C4         -9.9686    1.3778   61.3079 C.3     1  ZINC000450219577   -0.1400
      5 O5         -9.8512    0.5800   59.0101 O.3     1  ZINC000450219577   -0.3400
      6 C6        -10.2561   -0.6990   59.0542 C.2     1  ZINC000450219577    0.4700
      7 O7        -10.6902   -1.1601   60.0832 O.2     1  ZINC000450219577   -0.5000
      8 C8        -10.1692   -1.5599   57.8203 C.3     1  ZINC000450219577    0.2000
      9 H9        -11.1655   -1.9103   57.5508 H       1  ZINC000450219577    0.1400
     10 N10        -9.6122   -0.7751   56.7157 N.am    1  ZINC000450219577   -0.7100
     11 C11       -10.0794   -0.9482   55.4634 C.2     1  ZINC000450219577    0.5800
     12 O12       -10.9640   -1.7543   55.2507 O.2     1  ZINC000450219577   -0.5200
     13 C13        -9.5162   -0.1577   54.3484 C.ar    1  ZINC000450219577   -0.2500
     14 C14       -10.0443   -0.2584   53.0563 C.ar    1  ZINC000450219577    0.1900
     15 N15        -9.5104    0.4669   52.0893 N.ar    1  ZINC000450219577   -0.5100
     16 C16        -8.4963    1.2754   52.3283 C.ar    1  ZINC000450219577    0.3800
     17 C17        -7.9226    2.0816   51.1918 C.3     1  ZINC000450219577   -0.1100
     18 C18        -6.4485    2.4812   51.2828 C.3     1  ZINC000450219577   -0.1500
     19 C19        -6.8882    1.3999   50.2936 C.3     1  ZINC000450219577   -0.1500
     20 N20        -7.9687    1.4011   53.5303 N.ar    1  ZINC000450219577   -0.5200
     21 C21        -8.4438    0.7171   54.5563 C.ar    1  ZINC000450219577    0.2200
     22 C22        -9.2776   -2.7434   58.0952 C.ar    1  ZINC000450219577   -0.1100
     23 C23        -9.8252   -4.0060   58.2246 C.ar    1  ZINC000450219577   -0.1000
     24 C24        -9.0075   -5.0915   58.4766 C.ar    1  ZINC000450219577   -0.1200
     25 C25        -7.6420   -4.9145   58.5990 C.ar    1  ZINC000450219577   -0.1100
     26 C26        -7.0942   -3.6521   58.4688 C.ar    1  ZINC000450219577   -0.1200
     27 C27        -7.9115   -2.5671   58.2124 C.ar    1  ZINC000450219577   -0.0800
     28 H28        -7.6458    2.0933   58.8645 H       1  ZINC000450219577    0.0800
     29 H29        -9.0126    3.0913   59.4159 H       1  ZINC000450219577    0.0600
     30 H30        -7.6989    2.6799   60.5442 H       1  ZINC000450219577    0.0700
     31 H31        -7.4508    0.3352   61.3709 H       1  ZINC000450219577    0.0700
     32 H32        -8.5877   -0.9237   60.8316 H       1  ZINC000450219577    0.0600
     33 H33        -7.3976   -0.2514   59.6912 H       1  ZINC000450219577    0.0800
     34 H34       -10.6830    2.1477   61.0164 H       1  ZINC000450219577    0.0700
     35 H35       -10.5061    0.4774   61.6054 H       1  ZINC000450219577    0.0700
     36 H36        -9.3692    1.7363   62.1448 H       1  ZINC000450219577    0.0800
     37 H37        -8.9072   -0.1309   56.8855 H       1  ZINC000450219577    0.4100
     38 H38       -10.8744   -0.9186   52.8527 H       1  ZINC000450219577    0.1700
     39 H39        -8.6079    2.7881   50.7235 H       1  ZINC000450219577    0.1300
     40 H40        -6.1638    3.4510   50.8745 H       1  ZINC000450219577    0.1000
     41 H41        -5.8937    2.1610   52.1647 H       1  ZINC000450219577    0.1100
     42 H42        -6.6228    0.3683   50.5249 H       1  ZINC000450219577    0.1000
     43 H43        -6.8929    1.6583   49.2347 H       1  ZINC000450219577    0.1100
     44 H44        -8.0063    0.8253   55.5378 H       1  ZINC000450219577    0.1800
     45 H45       -10.8921   -4.1443   58.1289 H       1  ZINC000450219577    0.1200
     46 H46        -9.4354   -6.0779   58.5784 H       1  ZINC000450219577    0.1200
     47 H47        -7.0031   -5.7626   58.7967 H       1  ZINC000450219577    0.1300
     48 H48        -6.0274   -3.5138   58.5647 H       1  ZINC000450219577    0.1300
     49 H49        -7.4836   -1.5808   58.1107 H       1  ZINC000450219577    0.1300
@<TRIPOS>BOND
     1     1     2    1
     2     1    28    1
     3     1    29    1
     4     1    30    1
     5     2     3    1
     6     2     4    1
     7     2     5    1
     8     3    31    1
     9     3    32    1
    10     3    33    1
    11     4    34    1
    12     4    35    1
    13     4    36    1
    14     5     6    1
    15     6     7    2
    16     6     8    1
    17     8     9    1
    18     8    10    1
    19     8    22    1
    20    10    11   am
    21    10    37    1
    22    11    12    2
    23    11    13    1
    24    13    21   ar
    25    13    14   ar
    26    14    15   ar
    27    14    38    1
    28    15    16   ar
    29    16    17    1
    30    16    20   ar
    31    17    19    1
    32    17    18    1
    33    17    39    1
    34    18    19    1
    35    18    40    1
    36    18    41    1
    37    19    42    1
    38    19    43    1
    39    20    21   ar
    40    21    44    1
    41    22    27   ar
    42    22    23   ar
    43    23    24   ar
    44    23    45    1
    45    24    25   ar
    46    24    46    1
    47    25    26   ar
    48    25    47    1
    49    26    27   ar
    50    26    48    1
    51    27    49    1
@<TRIPOS>SUBSTRUCTURE
     1 ZINC000450219577        1 TEMP              0 ****  ****    0 ROOT


##########                                Name:    ZINC000279452407
##########                DOCK_Rotatable_Bonds:                   6
##########                         Heavy_Atoms:                  24
##########                    Molecular_Weight:              375.47
##########                DOCK_Rotatable_Bonds:                   6
##########                       Formal_Charge:          0.00999929
##########                     HBond_Acceptors:                  10
##########                        HBond_Donors:                   3
##########                         Heavy_Atoms:                  24
##########                          Grid_Score:          -31.945829
##########                     Grid_vdw_energy:          -29.313684
##########                      Grid_es_energy:           -2.632145
##########           Internal_energy_repulsive:           27.968742

@<TRIPOS>MOLECULE
ZINC000279452407
 45 47 1 0 0
SMALL
USER_CHARGES


@<TRIPOS>ATOM
      1 C1        -11.4981   -2.0949   59.5536 C.3     1  ZINC000279452407   -0.1600
      2 C2        -12.8562   -2.2309   58.8623 C.3     1  ZINC000279452407    0.0600
      3 H3        -13.3460   -1.2585   58.8121 H       1  ZINC000279452407    0.0700
      4 O4        -13.6836   -3.1594   59.5862 O.3     1  ZINC000279452407   -0.3700
      5 C5        -14.4882   -3.8572   58.6106 C.3     1  ZINC000279452407    0.0500
      6 C6        -13.5068   -4.0955   57.4335 C.3     1  ZINC000279452407   -0.1400
      7 C7        -12.6683   -2.7955   57.4466 C.3     1  ZINC000279452407    0.0700
      8 C8        -11.1981   -3.1217   57.1960 C.3     1  ZINC000279452407    0.1100
      9 N9        -10.4607   -1.8568   57.0373 N.am    1  ZINC000279452407   -0.6300
     10 C10        -9.3248   -1.6237   57.7244 C.2     1  ZINC000279452407    0.7200
     11 O11        -8.8939   -2.4643   58.4899 O.2     1  ZINC000279452407   -0.5800
     12 N12        -8.6664   -0.4588   57.5627 N.am    1  ZINC000279452407   -0.7500
     13 C13        -7.4319   -0.2055   58.3095 C.3     1  ZINC000279452407    0.2000
     14 C14        -7.7728    0.3201   59.6801 C.2     1  ZINC000279452407   -0.1700
     15 C15        -7.9931    1.6011   59.9796 C.2     1  ZINC000279452407   -0.1400
     16 C16        -8.2912    1.8465   61.3089 C.2     1  ZINC000279452407    0.0100
     17 C17        -8.3129    0.7647   62.0889 C.2     1  ZINC000279452407   -0.7900
     18 S18        -8.6613    0.7648   63.8162 S.o2    1  ZINC000279452407    2.7300
     19 N19        -7.2117    0.8783   64.6087 N.am    1  ZINC000279452407   -1.2500
     20 O20        -9.3608    1.9723   64.0844 O.2     1  ZINC000279452407   -0.9600
     21 O21        -9.1851   -0.5207   64.1199 O.2     1  ZINC000279452407   -0.9500
     22 S22        -7.9485   -0.6627   61.1281 S.3     1  ZINC000279452407    0.2500
     23 C23       -11.0025   -0.8556   56.1048 C.3     1  ZINC000279452407    0.0700
     24 C24       -12.4800   -0.6263   56.4429 C.3     1  ZINC000279452407    0.0400
     25 O25       -13.1581   -1.8857   56.4693 O.3     1  ZINC000279452407   -0.3600
     26 H26       -10.9113   -1.3245   59.0533 H       1  ZINC000279452407    0.0700
     27 H27       -11.6476   -1.8174   60.5970 H       1  ZINC000279452407    0.0600
     28 H28       -10.9677   -3.0458   59.5029 H       1  ZINC000279452407    0.0800
     29 H29       -14.8418   -4.8064   59.0134 H       1  ZINC000279452407    0.1000
     30 H30       -15.3268   -3.2384   58.2917 H       1  ZINC000279452407    0.0700
     31 H31       -12.8795   -4.9673   57.6198 H       1  ZINC000279452407    0.1000
     32 H32       -14.0460   -4.1996   56.4920 H       1  ZINC000279452407    0.1000
     33 H33       -10.7962   -3.6761   58.0440 H       1  ZINC000279452407    0.1200
     34 H34       -11.1046   -3.7167   56.2876 H       1  ZINC000279452407    0.0800
     35 H35        -9.0102    0.2118   56.9520 H       1  ZINC000279452407    0.4000
     36 H36        -6.8686   -1.1336   58.4061 H       1  ZINC000279452407    0.1000
     37 H37        -6.8300    0.5311   57.7773 H       1  ZINC000279452407    0.0900
     38 H38        -7.9424    2.3874   59.2410 H       1  ZINC000279452407    0.1600
     39 H39        -8.4906    2.8387   61.6860 H       1  ZINC000279452407    0.1600
     40 H40        -7.1888    0.8926   65.5783 H       1  ZINC000279452407    0.4200
     41 H41        -6.3855    0.9306   64.1031 H       1  ZINC000279452407    0.4200
     42 H42       -10.4529    0.0796   56.2114 H       1  ZINC000279452407    0.0900
     43 H43       -10.9134   -1.2217   55.0820 H       1  ZINC000279452407    0.0900
     44 H44       -12.5600   -0.1492   57.4197 H       1  ZINC000279452407    0.0600
     45 H45       -12.9315    0.0147   55.6857 H       1  ZINC000279452407    0.1100
@<TRIPOS>BOND
     1     1     2    1
     2     1    26    1
     3     1    27    1
     4     1    28    1
     5     2     3    1
     6     2     7    1
     7     2     4    1
     8     4     5    1
     9     5     6    1
    10     5    29    1
    11     5    30    1
    12     6     7    1
    13     6    31    1
    14     6    32    1
    15     7    25    1
    16     7     8    1
    17     8     9    1
    18     8    33    1
    19     8    34    1
    20     9    10   am
    21     9    23    1
    22    10    11    2
    23    10    12   am
    24    12    13    1
    25    12    35    1
    26    13    14    1
    27    13    36    1
    28    13    37    1
    29    14    22    1
    30    14    15    2
    31    15    16    1
    32    15    38    1
    33    16    17    2
    34    16    39    1
    35    17    18    1
    36    17    22    1
    37    18    19   am
    38    18    20    2
    39    18    21    2
    40    19    40    1
    41    19    41    1
    42    23    24    1
    43    23    42    1
    44    23    43    1
    45    24    25    1
    46    24    44    1
    47    24    45    1
@<TRIPOS>SUBSTRUCTURE
     1 ZINC000279452407        1 TEMP              0 ****  ****    0 ROOT


##########                                Name:    ZINC000750807956
##########                DOCK_Rotatable_Bonds:                  11
##########                         Heavy_Atoms:                  26
##########                    Molecular_Weight:             368.473
##########                DOCK_Rotatable_Bonds:                  11
##########                       Formal_Charge:        -8.12113e-07
##########                     HBond_Acceptors:                   7
##########                        HBond_Donors:                   1
##########                         Heavy_Atoms:                  26
##########                          Grid_Score:          -31.932333
##########                     Grid_vdw_energy:          -31.892673
##########                      Grid_es_energy:           -0.039659
##########           Internal_energy_repulsive:           97.418396

@<TRIPOS>MOLECULE
ZINC000750807956
 58 59 1 0 0
SMALL
USER_CHARGES


@<TRIPOS>ATOM
      1 C1         -0.7395    1.3344   44.8556 C.3     1  ZINC000750807956   -0.1500
      2 C2         -2.1315    0.9582   45.3675 C.3     1  ZINC000750807956    0.0700
      3 O3         -2.5120    1.8580   46.4416 O.3     1  ZINC000750807956   -0.3600
      4 C4         -2.0334    1.5832   47.6652 C.2     1  ZINC000750807956    0.4800
      5 O5         -2.2370    0.5020   48.1646 O.2     1  ZINC000750807956   -0.4900
      6 C6         -1.2424    2.6231   48.4160 C.3     1  ZINC000750807956    0.1600
      7 H7         -0.7619    3.2984   47.7080 H       1  ZINC000750807956    0.1000
      8 C8         -0.1760    1.9360   49.2748 C.3     1  ZINC000750807956   -0.1300
      9 C9          0.5302    2.9834   50.1387 C.3     1  ZINC000750807956   -0.1200
     10 C10        -0.4858    3.6480   51.0703 C.3     1  ZINC000750807956   -0.1400
     11 C11        -1.5556    4.3545   50.2318 C.3     1  ZINC000750807956    0.1100
     12 N12        -2.1403    3.3866   49.2931 N.am    1  ZINC000750807956   -0.6100
     13 C13        -3.4740    3.1996   49.2417 C.2     1  ZINC000750807956    0.5100
     14 O14        -3.9443    2.3978   48.4625 O.2     1  ZINC000750807956   -0.5000
     15 C15        -4.3810    3.9866   50.1522 C.3     1  ZINC000750807956   -0.1400
     16 C16        -5.8323    3.5636   49.9161 C.3     1  ZINC000750807956    0.2100
     17 H17        -5.9092    3.0474   48.9593 H       1  ZINC000750807956    0.1000
     18 N18        -6.6906    4.7507   49.9009 N.am    1  ZINC000750807956   -0.7000
     19 C19        -8.0031    4.6298   49.6194 C.2     1  ZINC000750807956    0.6600
     20 O20        -8.4748    3.5360   49.3797 O.2     1  ZINC000750807956   -0.5600
     21 O21        -8.7915    5.7210   49.6038 O.3     1  ZINC000750807956   -0.3700
     22 C22       -10.1945    5.5161   49.2905 C.3     1  ZINC000750807956    0.1400
     23 C23       -10.9255    6.8599   49.3216 C.3     1  ZINC000750807956   -0.1800
     24 C24       -10.3209    4.8990   47.8962 C.3     1  ZINC000750807956   -0.1400
     25 C25       -10.8154    4.5738   50.3236 C.3     1  ZINC000750807956   -0.1800
     26 C26        -6.2792    2.6255   51.0392 C.3     1  ZINC000750807956   -0.1800
     27 C27        -6.7453    1.2227   50.6444 C.3     1  ZINC000750807956   -0.1700
     28 C28        -5.3960    1.4130   51.3402 C.3     1  ZINC000750807956   -0.1800
     29 H29        -0.0191    1.2537   45.6697 H       1  ZINC000750807956    0.0600
     30 H30        -0.4540    0.6589   44.0494 H       1  ZINC000750807956    0.0800
     31 H31        -0.7540    2.3589   44.4835 H       1  ZINC000750807956    0.0700
     32 H32        -2.8520    1.0389   44.5534 H       1  ZINC000750807956    0.0700
     33 H33        -2.1171   -0.0663   45.7396 H       1  ZINC000750807956    0.0600
     34 H34        -0.6493    1.1936   49.9174 H       1  ZINC000750807956    0.0800
     35 H35         0.5523    1.4467   48.6281 H       1  ZINC000750807956    0.0800
     36 H36         1.3063    2.5007   50.7328 H       1  ZINC000750807956    0.0800
     37 H37         0.9824    3.7390   49.4962 H       1  ZINC000750807956    0.0700
     38 H38        -0.9562    2.8895   51.6961 H       1  ZINC000750807956    0.0700
     39 H39         0.0219    4.3773   51.7015 H       1  ZINC000750807956    0.0800
     40 H40        -2.3345    4.7448   50.8869 H       1  ZINC000750807956    0.0900
     41 H41        -1.1009    5.1729   49.6736 H       1  ZINC000750807956    0.0800
     42 H42        -4.1104    3.7933   51.1902 H       1  ZINC000750807956    0.1200
     43 H43        -4.2736    5.0505   49.9407 H       1  ZINC000750807956    0.1100
     44 H44        -6.3143    5.6238   50.0934 H       1  ZINC000750807956    0.4000
     45 H45       -10.4831    7.5313   48.5858 H       1  ZINC000750807956    0.0600
     46 H46       -11.9787    6.7061   49.0866 H       1  ZINC000750807956    0.0700
     47 H47       -10.8355    7.2995   50.3150 H       1  ZINC000750807956    0.0900
     48 H48        -9.8001    3.9417   47.8741 H       1  ZINC000750807956    0.0700
     49 H49       -11.3740    4.7452   47.6610 H       1  ZINC000750807956    0.0800
     50 H50        -9.8785    5.5705   47.1602 H       1  ZINC000750807956    0.0700
     51 H51       -10.7254    5.0134   51.3170 H       1  ZINC000750807956    0.0900
     52 H52       -11.8686    4.4200   50.0884 H       1  ZINC000750807956    0.0700
     53 H53       -10.2947    3.6165   50.3014 H       1  ZINC000750807956    0.0600
     54 H54        -6.7803    3.1045   51.8804 H       1  ZINC000750807956    0.1100
     55 H55        -7.5532    0.7785   51.2257 H       1  ZINC000750807956    0.0900
     56 H56        -6.7335    0.9682   49.5845 H       1  ZINC000750807956    0.0900
     57 H57        -4.4966    1.2837   50.7381 H       1  ZINC000750807956    0.1200
     58 H58        -5.3163    1.0941   52.3794 H       1  ZINC000750807956    0.0900
@<TRIPOS>BOND
     1     1     2    1
     2     1    29    1
     3     1    30    1
     4     1    31    1
     5     2     3    1
     6     2    32    1
     7     2    33    1
     8     3     4    1
     9     4     5    2
    10     4     6    1
    11     6     7    1
    12     6    12    1
    13     6     8    1
    14     8     9    1
    15     8    34    1
    16     8    35    1
    17     9    10    1
    18     9    36    1
    19     9    37    1
    20    10    11    1
    21    10    38    1
    22    10    39    1
    23    11    12    1
    24    11    40    1
    25    11    41    1
    26    12    13   am
    27    13    14    2
    28    13    15    1
    29    15    16    1
    30    15    42    1
    31    15    43    1
    32    16    17    1
    33    16    18    1
    34    16    26    1
    35    18    19   am
    36    18    44    1
    37    19    20    2
    38    19    21    1
    39    21    22    1
    40    22    23    1
    41    22    24    1
    42    22    25    1
    43    23    45    1
    44    23    46    1
    45    23    47    1
    46    24    48    1
    47    24    49    1
    48    24    50    1
    49    25    51    1
    50    25    52    1
    51    25    53    1
    52    26    28    1
    53    26    27    1
    54    26    54    1
    55    27    28    1
    56    27    55    1
    57    27    56    1
    58    28    57    1
    59    28    58    1
@<TRIPOS>SUBSTRUCTURE
     1 ZINC000750807956        1 TEMP              0 ****  ****    0 ROOT


##########                                Name:    ZINC000541568816
##########                DOCK_Rotatable_Bonds:                   8
##########                         Heavy_Atoms:                  25
##########                    Molecular_Weight:             411.339
##########                DOCK_Rotatable_Bonds:                   8
##########                       Formal_Charge:          -0.0100007
##########                     HBond_Acceptors:                   5
##########                        HBond_Donors:                   1
##########                         Heavy_Atoms:                  25
##########                          Grid_Score:          -31.909052
##########                     Grid_vdw_energy:          -31.733200
##########                      Grid_es_energy:           -0.175852
##########           Internal_energy_repulsive:           21.327740

@<TRIPOS>MOLECULE
ZINC000541568816
 52 54 1 0 0
SMALL
USER_CHARGES


@<TRIPOS>ATOM
      1 C1          0.5197    4.2472   44.5826 C.3     1  ZINC000541568816   -0.1500
      2 C2         -0.5049    3.3742   45.3100 C.3     1  ZINC000541568816    0.0600
      3 O3         -0.2760    3.4448   46.7188 O.3     1  ZINC000541568816   -0.3700
      4 C4         -1.4397    3.1954   47.5099 C.3     1  ZINC000541568816    0.0700
      5 H5         -2.3538    3.5678   47.0477 H       1  ZINC000541568816    0.0900
      6 C6         -1.2827    3.6052   48.9849 C.3     1  ZINC000541568816   -0.1700
      7 C7         -2.0388    2.3143   49.3450 C.3     1  ZINC000541568816    0.1500
      8 H8         -1.6320    1.7974   50.2142 H       1  ZINC000541568816    0.1100
      9 N9         -3.4924    2.4842   49.4123 N.am    1  ZINC000541568816   -0.7200
     10 C10        -4.2280    1.6854   50.2107 C.2     1  ZINC000541568816    0.7100
     11 O11        -3.6850    0.8247   50.8761 O.2     1  ZINC000541568816   -0.5800
     12 N12        -5.5654    1.8406   50.2714 N.am    1  ZINC000541568816   -0.6300
     13 C13        -6.2194    2.8788   49.4710 C.3     1  ZINC000541568816    0.1000
     14 C14        -6.3581    4.1541   50.3050 C.3     1  ZINC000541568816   -0.1800
     15 C15        -6.3651    0.9711   51.1378 C.3     1  ZINC000541568816    0.1700
     16 C16        -6.5169    1.6140   52.4923 C.ar    1  ZINC000541568816   -0.0700
     17 C17        -5.4777    2.3511   53.0278 C.ar    1  ZINC000541568816   -0.1000
     18 C18        -5.6168    2.9410   54.2705 C.ar    1  ZINC000541568816   -0.1000
     19 C19        -6.7954    2.7943   54.9776 C.ar    1  ZINC000541568816   -0.1200
     20 C20        -7.8354    2.0572   54.4427 C.ar    1  ZINC000541568816   -0.0900
     21 C21        -7.6986    1.4713   53.1974 C.ar    1  ZINC000541568816   -0.0900
     22 Br22       -9.1209    0.4629   52.4651 Br      1  ZINC000541568816   -0.0500
     23 C23        -1.5469    1.7501   48.0062 C.3     1  ZINC000541568816    0.0800
     24 C24        -0.2066    0.9982   48.0817 C.3     1  ZINC000541568816   -0.1200
     25 C25        -0.6484   -0.4755   47.8611 C.3     1  ZINC000541568816   -0.1600
     26 C26        -1.8373   -0.2854   46.8850 C.3     1  ZINC000541568816    0.0500
     27 O27        -2.4813    0.9291   47.3085 O.3     1  ZINC000541568816   -0.3600
     28 H28         0.4187    5.2802   44.9157 H       1  ZINC000541568816    0.0600
     29 H29         1.5250    3.8901   44.8057 H       1  ZINC000541568816    0.0600
     30 H30         0.3451    4.1934   43.5080 H       1  ZINC000541568816    0.0700
     31 H31        -1.5102    3.7314   45.0869 H       1  ZINC000541568816    0.0500
     32 H32        -0.4040    2.3413   44.9768 H       1  ZINC000541568816    0.0500
     33 H33        -0.2479    3.6148   49.3273 H       1  ZINC000541568816    0.1000
     34 H34        -1.8238    4.5150   49.2450 H       1  ZINC000541568816    0.0800
     35 H35        -3.9254    3.1716   48.8824 H       1  ZINC000541568816    0.4000
     36 H36        -5.6189    3.0872   48.5856 H       1  ZINC000541568816    0.0900
     37 H37        -7.2079    2.5343   49.1669 H       1  ZINC000541568816    0.0700
     38 H38        -5.3697    4.4985   50.6091 H       1  ZINC000541568816    0.0600
     39 H39        -6.8447    4.9265   49.7095 H       1  ZINC000541568816    0.0700
     40 H40        -6.9585    3.9457   51.1904 H       1  ZINC000541568816    0.0600
     41 H41        -7.3495    0.8221   50.6940 H       1  ZINC000541568816    0.1000
     42 H42        -5.8660    0.0082   51.2465 H       1  ZINC000541568816    0.1100
     43 H43        -4.5566    2.4659   52.4757 H       1  ZINC000541568816    0.1300
     44 H44        -4.8042    3.5163   54.6890 H       1  ZINC000541568816    0.1300
     45 H45        -6.9036    3.2553   55.9482 H       1  ZINC000541568816    0.1300
     46 H46        -8.7562    1.9424   54.9954 H       1  ZINC000541568816    0.1300
     47 H47         0.4679    1.3249   47.2903 H       1  ZINC000541568816    0.1000
     48 H48         0.2551    1.1236   49.0611 H       1  ZINC000541568816    0.0900
     49 H49         0.1484   -1.0595   47.4004 H       1  ZINC000541568816    0.0900
     50 H50        -0.9766   -0.9311   48.7953 H       1  ZINC000541568816    0.0800
     51 H51        -1.4744   -0.1842   45.8622 H       1  ZINC000541568816    0.0600
     52 H52        -2.5273   -1.1257   46.9610 H       1  ZINC000541568816    0.0900
@<TRIPOS>BOND
     1     1     2    1
     2     1    28    1
     3     1    29    1
     4     1    30    1
     5     2     3    1
     6     2    31    1
     7     2    32    1
     8     3     4    1
     9     4     5    1
    10     4    23    1
    11     4     6    1
    12     6     7    1
    13     6    33    1
    14     6    34    1
    15     7     8    1
    16     7     9    1
    17     7    23    1
    18     9    10   am
    19     9    35    1
    20    10    11    2
    21    10    12   am
    22    12    13    1
    23    12    15    1
    24    13    14    1
    25    13    36    1
    26    13    37    1
    27    14    38    1
    28    14    39    1
    29    14    40    1
    30    15    16    1
    31    15    41    1
    32    15    42    1
    33    16    21   ar
    34    16    17   ar
    35    17    18   ar
    36    17    43    1
    37    18    19   ar
    38    18    44    1
    39    19    20   ar
    40    19    45    1
    41    20    21   ar
    42    20    46    1
    43    21    22    1
    44    23    27    1
    45    23    24    1
    46    24    25    1
    47    24    47    1
    48    24    48    1
    49    25    26    1
    50    25    49    1
    51    25    50    1
    52    26    27    1
    53    26    51    1
    54    26    52    1
@<TRIPOS>SUBSTRUCTURE
     1 ZINC000541568816        1 TEMP              0 ****  ****    0 ROOT


##########                                Name:    ZINC000538774026
##########                DOCK_Rotatable_Bonds:                  10
##########                         Heavy_Atoms:                  29
##########                    Molecular_Weight:             414.496
##########                DOCK_Rotatable_Bonds:                  10
##########                       Formal_Charge:            0.049999
##########                     HBond_Acceptors:                   9
##########                        HBond_Donors:                   2
##########                         Heavy_Atoms:                  29
##########                          Grid_Score:          -31.877989
##########                     Grid_vdw_energy:          -29.208881
##########                      Grid_es_energy:           -2.669108
##########           Internal_energy_repulsive:           29.971046

@<TRIPOS>MOLECULE
ZINC000538774026
 61 62 1 0 0
SMALL
USER_CHARGES


@<TRIPOS>ATOM
      1 C1         -9.4038    3.5391   58.8238 C.3     1  ZINC000538774026   -0.1500
      2 C2         -9.0314    2.6327   59.9989 C.3     1  ZINC000538774026   -0.1100
      3 C3         -9.9411    1.4026   60.0025 C.3     1  ZINC000538774026   -0.1400
      4 C4         -7.5739    2.1889   59.8585 C.3     1  ZINC000538774026    0.1400
      5 N5         -7.2911    1.8782   58.4551 N.pl3   1  ZINC000538774026   -0.3400
      6 N6         -7.7654    0.7682   57.7446 N.2     1  ZINC000538774026   -0.2500
      7 C7         -7.3029    0.8327   56.5223 C.2     1  ZINC000538774026    0.0500
      8 C8         -6.5158    1.9878   56.4088 C.2     1  ZINC000538774026    0.0800
      9 N9         -5.8388    2.4196   55.2516 N.am    1  ZINC000538774026   -0.6600
     10 C10        -6.4385    2.3318   54.0478 C.2     1  ZINC000538774026    0.7100
     11 O11        -7.5646    1.8813   53.9609 O.2     1  ZINC000538774026   -0.5700
     12 N12        -5.7901    2.7435   52.9404 N.am    1  ZINC000538774026   -0.7300
     13 C13        -6.4413    2.6465   51.6316 C.3     1  ZINC000538774026    0.1600
     14 C14        -5.9495    3.7822   50.7319 C.3     1  ZINC000538774026   -0.1300
     15 C15        -4.4335    3.6738   50.5565 C.3     1  ZINC000538774026   -0.1000
     16 C16        -4.0892    2.3287   49.9140 C.3     1  ZINC000538774026   -0.0800
     17 C17        -2.5959    2.2220   49.7412 C.2     1  ZINC000538774026    0.4700
     18 O18        -1.9041    3.2074   49.8435 O.2     1  ZINC000538774026   -0.5000
     19 O19        -2.0344    1.0325   49.4739 O.3     1  ZINC000538774026   -0.3500
     20 C20        -1.3451    0.8998   48.2028 C.3     1  ZINC000538774026    0.1200
     21 C21        -1.2825   -0.5772   47.8084 C.3     1  ZINC000538774026   -0.1800
     22 C22        -2.1018    1.6830   47.1281 C.3     1  ZINC000538774026   -0.1400
     23 C23         0.0751    1.4537   48.3326 C.3     1  ZINC000538774026   -0.1800
     24 C24        -4.5809    1.1931   50.8137 C.3     1  ZINC000538774026   -0.1100
     25 C25        -6.0969    1.3013   50.9891 C.3     1  ZINC000538774026   -0.1300
     26 C26        -6.5271    2.6188   57.6104 C.2     1  ZINC000538774026   -0.0500
     27 C27        -5.8144    3.9028   57.9486 C.3     1  ZINC000538774026    0.3500
     28 F28        -4.4388    3.7377   57.7543 F       1  ZINC000538774026   -0.1900
     29 F29        -6.2826    4.9283   57.1201 F       1  ZINC000538774026   -0.1900
     30 H30       -10.4422    3.8553   58.9238 H       1  ZINC000538774026    0.0600
     31 H31        -8.7558    4.4154   58.8213 H       1  ZINC000538774026    0.0600
     32 H32        -9.2790    2.9921   57.8893 H       1  ZINC000538774026    0.0600
     33 H33        -9.1563    3.1797   60.9335 H       1  ZINC000538774026    0.0800
     34 H34        -9.8162    0.8556   59.0680 H       1  ZINC000538774026    0.0600
     35 H35        -9.6756    0.7568   60.8396 H       1  ZINC000538774026    0.0600
     36 H36       -10.9794    1.7188   60.1025 H       1  ZINC000538774026    0.0600
     37 H37        -6.9161    2.9912   60.1928 H       1  ZINC000538774026    0.1000
     38 H38        -7.4039    1.3017   60.4684 H       1  ZINC000538774026    0.1000
     39 H39        -7.4943    0.1182   55.7354 H       1  ZINC000538774026    0.2100
     40 H40        -4.9410    2.7801   55.3211 H       1  ZINC000538774026    0.4100
     41 H41        -4.8922    3.1040   53.0098 H       1  ZINC000538774026    0.4000
     42 H42        -7.5212    2.7236   51.7565 H       1  ZINC000538774026    0.1000
     43 H43        -6.4340    3.7099   49.7582 H       1  ZINC000538774026    0.0800
     44 H44        -6.1948    4.7404   51.1896 H       1  ZINC000538774026    0.0800
     45 H45        -4.0832    4.4829   49.9155 H       1  ZINC000538774026    0.0700
     46 H46        -3.9490    3.7460   51.5302 H       1  ZINC000538774026    0.0700
     47 H47        -4.5736    2.2565   48.9403 H       1  ZINC000538774026    0.1100
     48 H48        -2.2943   -0.9718   47.7161 H       1  ZINC000538774026    0.0600
     49 H49        -0.7650   -0.6769   46.8543 H       1  ZINC000538774026    0.0700
     50 H50        -0.7434   -1.1351   48.5741 H       1  ZINC000538774026    0.0800
     51 H51        -2.1465    2.7351   47.4091 H       1  ZINC000538774026    0.0700
     52 H52        -1.5844    1.5832   46.1739 H       1  ZINC000538774026    0.0800
     53 H53        -3.1137    1.2883   47.0357 H       1  ZINC000538774026    0.0700
     54 H54         0.6142    0.8958   49.0982 H       1  ZINC000538774026    0.0800
     55 H55         0.5926    1.3541   47.3784 H       1  ZINC000538774026    0.0700
     56 H56         0.0305    2.5060   48.6135 H       1  ZINC000538774026    0.0600
     57 H57        -4.3356    0.2347   50.3560 H       1  ZINC000538774026    0.0800
     58 H58        -4.0964    1.2653   51.7875 H       1  ZINC000538774026    0.0600
     59 H59        -6.4471    0.4922   51.6301 H       1  ZINC000538774026    0.0800
     60 H60        -6.5814    1.2291   50.0154 H       1  ZINC000538774026    0.0900
     61 H61        -6.0059    4.1612   58.9901 H       1  ZINC000538774026    0.1300
@<TRIPOS>BOND
     1     1     2    1
     2     1    30    1
     3     1    31    1
     4     1    32    1
     5     2     3    1
     6     2     4    1
     7     2    33    1
     8     3    34    1
     9     3    35    1
    10     3    36    1
    11     4     5    1
    12     4    37    1
    13     4    38    1
    14     5    26    1
    15     5     6    1
    16     6     7    2
    17     7     8    1
    18     7    39    1
    19     8     9    1
    20     8    26    2
    21     9    10   am
    22     9    40    1
    23    10    11    2
    24    10    12   am
    25    12    13    1
    26    12    41    1
    27    13    25    1
    28    13    14    1
    29    13    42    1
    30    14    15    1
    31    14    43    1
    32    14    44    1
    33    15    16    1
    34    15    45    1
    35    15    46    1
    36    16    17    1
    37    16    24    1
    38    16    47    1
    39    17    18    2
    40    17    19    1
    41    19    20    1
    42    20    21    1
    43    20    22    1
    44    20    23    1
    45    21    48    1
    46    21    49    1
    47    21    50    1
    48    22    51    1
    49    22    52    1
    50    22    53    1
    51    23    54    1
    52    23    55    1
    53    23    56    1
    54    24    25    1
    55    24    57    1
    56    24    58    1
    57    25    59    1
    58    25    60    1
    59    26    27    1
    60    27    28    1
    61    27    29    1
    62    27    61    1
@<TRIPOS>SUBSTRUCTURE
     1 ZINC000538774026        1 TEMP              0 ****  ****    0 ROOT


##########                                Name:    ZINC001342629575
##########                DOCK_Rotatable_Bonds:                   9
##########                         Heavy_Atoms:                  29
##########                    Molecular_Weight:             396.533
##########                DOCK_Rotatable_Bonds:                   9
##########                       Formal_Charge:         -0.00999976
##########                     HBond_Acceptors:                   6
##########                        HBond_Donors:                   0
##########                         Heavy_Atoms:                  29
##########                          Grid_Score:          -31.866652
##########                     Grid_vdw_energy:          -31.566473
##########                      Grid_es_energy:           -0.300179
##########           Internal_energy_repulsive:           19.044168

@<TRIPOS>MOLECULE
ZINC001342629575
 61 64 1 0 0
SMALL
USER_CHARGES


@<TRIPOS>ATOM
      1 C1         -0.0586    3.9361   48.6997 C.2     1  ZINC001342629575   -0.1800
      2 C2         -0.7744    3.9654   49.7964 C.2     1  ZINC001342629575   -0.1600
      3 C3         -2.2777    3.8984   49.7171 C.3     1  ZINC001342629575   -0.0800
      4 C4         -2.7381    2.4611   49.9680 C.3     1  ZINC001342629575    0.0500
      5 H5         -2.2614    2.0792   50.8708 H       1  ZINC001342629575    0.0900
      6 C6         -4.2349    2.4359   50.1412 C.2     1  ZINC001342629575    0.2000
      7 N7         -5.1234    2.6440   49.2113 N.2     1  ZINC001342629575   -0.2700
      8 N8         -6.3070    2.5475   49.7031 N.2     1  ZINC001342629575   -0.3000
      9 C9         -6.2364    2.2705   50.9837 C.2     1  ZINC001342629575    0.3400
     10 N10        -7.3048    2.0927   51.8482 N.3     1  ZINC001342629575   -0.4300
     11 C11        -7.9374    0.7638   51.6464 C.3     1  ZINC001342629575    0.0400
     12 C12        -9.3566    0.9151   52.2350 C.3     1  ZINC001342629575   -0.1200
     13 C13        -9.6556    2.4274   52.1767 C.3     1  ZINC001342629575   -0.1200
     14 C14        -8.3920    3.0625   51.5575 C.3     1  ZINC001342629575    0.0700
     15 H15        -8.5157    3.1836   50.4814 H       1  ZINC001342629575    0.0900
     16 C16        -8.0964    4.4121   52.2149 C.3     1  ZINC001342629575    0.1000
     17 H17        -7.8296    4.2631   53.2612 H       1  ZINC001342629575    0.0700
     18 C18        -9.3366    5.3259   52.1156 C.3     1  ZINC001342629575   -0.1400
     19 C19        -8.7018    6.7124   51.8214 C.3     1  ZINC001342629575   -0.1600
     20 C20        -7.4822    6.3005   50.9588 C.3     1  ZINC001342629575    0.0500
     21 O21        -7.0212    5.0623   51.5273 O.3     1  ZINC001342629575   -0.3700
     22 N22        -4.9123    2.1848   51.3021 N.pl3   1  ZINC001342629575   -0.4600
     23 C23        -4.3359    1.8939   52.6172 C.3     1  ZINC001342629575    0.1100
     24 C24        -3.9204    3.2023   53.2927 C.3     1  ZINC001342629575    0.0500
     25 O25        -3.6618    2.9623   54.6774 O.3     1  ZINC001342629575   -0.3800
     26 C26        -4.8399    2.8624   55.4799 C.3     1  ZINC001342629575    0.0300
     27 C27        -2.3538    1.5983   48.7937 C.ar    1  ZINC001342629575   -0.0900
     28 C28        -2.8246    1.9014   47.5298 C.ar    1  ZINC001342629575   -0.0900
     29 C29        -2.4720    1.1101   46.4527 C.ar    1  ZINC001342629575   -0.1200
     30 C30        -1.6483    0.0157   46.6393 C.ar    1  ZINC001342629575   -0.1200
     31 C31        -1.1768   -0.2870   47.9030 C.ar    1  ZINC001342629575   -0.1200
     32 C32        -1.5259    0.5070   48.9794 C.ar    1  ZINC001342629575   -0.1100
     33 H33         1.0188    3.9842   48.7565 H       1  ZINC001342629575    0.1000
     34 H34        -0.5457    3.8594   47.7388 H       1  ZINC001342629575    0.1000
     35 H35        -0.2870    4.0377   50.7575 H       1  ZINC001342629575    0.1000
     36 H36        -2.7110    4.5555   50.4711 H       1  ZINC001342629575    0.0900
     37 H37        -2.6038    4.2168   48.7270 H       1  ZINC001342629575    0.0800
     38 H38        -7.9900    0.5252   50.5841 H       1  ZINC001342629575    0.0600
     39 H39        -7.3835   -0.0064   52.1829 H       1  ZINC001342629575    0.0800
     40 H40       -10.0775    0.3632   51.6320 H       1  ZINC001342629575    0.0800
     41 H41        -9.3778    0.5647   53.2669 H       1  ZINC001342629575    0.0800
     42 H42       -10.5232    2.6176   51.5449 H       1  ZINC001342629575    0.0800
     43 H43        -9.8236    2.8191   53.1798 H       1  ZINC001342629575    0.0800
     44 H44        -9.9838    5.0139   51.2959 H       1  ZINC001342629575    0.0900
     45 H45        -9.8833    5.3419   53.0585 H       1  ZINC001342629575    0.0800
     46 H46        -9.3860    7.3461   51.2570 H       1  ZINC001342629575    0.0800
     47 H47        -8.3843    7.2025   52.7418 H       1  ZINC001342629575    0.0800
     48 H48        -7.7848    6.1521   49.9222 H       1  ZINC001342629575    0.0600
     49 H49        -6.7014    7.0583   51.0211 H       1  ZINC001342629575    0.0900
     50 H50        -5.0768    1.3856   53.2343 H       1  ZINC001342629575    0.1000
     51 H51        -3.4621    1.2535   52.4972 H       1  ZINC001342629575    0.1100
     52 H52        -3.0188    3.5869   52.8160 H       1  ZINC001342629575    0.0600
     53 H53        -4.7234    3.9329   53.1943 H       1  ZINC001342629575    0.0600
     54 H54        -4.5587    2.6799   56.5171 H       1  ZINC001342629575    0.0900
     55 H55        -5.4041    3.7926   55.4146 H       1  ZINC001342629575    0.0400
     56 H56        -5.4557    2.0380   55.1202 H       1  ZINC001342629575    0.0400
     57 H57        -3.4681    2.7564   47.3841 H       1  ZINC001342629575    0.1300
     58 H58        -2.8404    1.3466   45.4654 H       1  ZINC001342629575    0.1200
     59 H59        -1.3735   -0.6030   45.7979 H       1  ZINC001342629575    0.1200
     60 H60        -0.5335   -1.1421   48.0488 H       1  ZINC001342629575    0.1200
     61 H61        -1.1574    0.2705   49.9667 H       1  ZINC001342629575    0.1200
@<TRIPOS>BOND
     1     1     2    2
     2     1    33    1
     3     1    34    1
     4     2     3    1
     5     2    35    1
     6     3     4    1
     7     3    36    1
     8     3    37    1
     9     4     5    1
    10     4     6    1
    11     4    27    1
    12     6    22    1
    13     6     7    2
    14     7     8    1
    15     8     9    2
    16     9    10    1
    17     9    22    1
    18    10    14    1
    19    10    11    1
    20    11    12    1
    21    11    38    1
    22    11    39    1
    23    12    13    1
    24    12    40    1
    25    12    41    1
    26    13    14    1
    27    13    42    1
    28    13    43    1
    29    14    15    1
    30    14    16    1
    31    16    17    1
    32    16    21    1
    33    16    18    1
    34    18    19    1
    35    18    44    1
    36    18    45    1
    37    19    20    1
    38    19    46    1
    39    19    47    1
    40    20    21    1
    41    20    48    1
    42    20    49    1
    43    22    23    1
    44    23    24    1
    45    23    50    1
    46    23    51    1
    47    24    25    1
    48    24    52    1
    49    24    53    1
    50    25    26    1
    51    26    54    1
    52    26    55    1
    53    26    56    1
    54    27    32   ar
    55    27    28   ar
    56    28    29   ar
    57    28    57    1
    58    29    30   ar
    59    29    58    1
    60    30    31   ar
    61    30    59    1
    62    31    32   ar
    63    31    60    1
    64    32    61    1
@<TRIPOS>SUBSTRUCTURE
     1 ZINC001342629575        1 TEMP              0 ****  ****    0 ROOT


##########                                Name:    ZINC001707162141
##########                DOCK_Rotatable_Bonds:                   9
##########                         Heavy_Atoms:                  25
##########                    Molecular_Weight:               344.5
##########                DOCK_Rotatable_Bonds:                   9
##########                       Formal_Charge:          -0.0299999
##########                     HBond_Acceptors:                   5
##########                        HBond_Donors:                   1
##########                         Heavy_Atoms:                  25
##########                          Grid_Score:          -31.849297
##########                     Grid_vdw_energy:          -31.278881
##########                      Grid_es_energy:           -0.570416
##########           Internal_energy_repulsive:           83.074539

@<TRIPOS>MOLECULE
ZINC001707162141
 57 59 1 0 0
SMALL
USER_CHARGES


@<TRIPOS>ATOM
      1 C1         -8.2090    4.8771   50.0314 C.3     1  ZINC001707162141   -0.1800
      2 C2         -7.1988    3.7530   49.7935 C.3     1  ZINC001707162141    0.1700
      3 H3         -7.2766    3.4067   48.7628 H       1  ZINC001707162141    0.1000
      4 N4         -5.8404    4.2549   50.0401 N.3     1  ZINC001707162141   -0.6400
      5 C5         -4.8426    3.4446   49.3287 C.3     1  ZINC001707162141    0.0700
      6 C6         -3.9470    2.7317   50.3438 C.3     1  ZINC001707162141    0.1500
      7 H7         -4.5399    2.0189   50.9171 H       1  ZINC001707162141    0.0700
      8 C8         -3.3216    3.7618   51.2896 C.3     1  ZINC001707162141   -0.1200
      9 C9         -2.3214    3.0608   52.2116 C.3     1  ZINC001707162141   -0.0900
     10 H10        -2.8328    2.2811   52.7761 H       1  ZINC001707162141    0.0700
     11 C11        -1.7200    4.0807   53.1808 C.3     1  ZINC001707162141   -0.1500
     12 C12        -1.2048    2.4341   51.3734 C.3     1  ZINC001707162141   -0.1300
     13 C13        -1.8062    1.3889   50.4286 C.3     1  ZINC001707162141    0.1100
     14 N14        -2.8708    2.0224   49.6387 N.am    1  ZINC001707162141   -0.6100
     15 C15        -2.8600    1.9546   48.2926 C.2     1  ZINC001707162141    0.5100
     16 O16        -3.7445    2.4817   47.6518 O.2     1  ZINC001707162141   -0.4800
     17 C17        -1.7488    1.2239   47.5838 C.3     1  ZINC001707162141   -0.1400
     18 C18        -1.8247    1.5124   46.0832 C.3     1  ZINC001707162141   -0.0900
     19 C19        -0.7730    0.6777   45.3496 C.3     1  ZINC001707162141   -0.0900
     20 C20         0.6146    1.0012   45.9072 C.3     1  ZINC001707162141   -0.1500
     21 C21         1.2190    2.3614   45.5526 C.3     1  ZINC001707162141   -0.1800
     22 C22         1.7735    1.0874   44.9119 C.3     1  ZINC001707162141   -0.1800
     23 C23        -7.4897    2.6094   50.7309 C.ar    1  ZINC001707162141    0.3500
     24 N24        -7.5177    1.3809   50.2547 N.ar    1  ZINC001707162141   -0.5000
     25 C25        -7.7643    0.3515   51.0488 C.ar    1  ZINC001707162141    0.1500
     26 C26        -8.0059    0.5805   52.3941 C.ar    1  ZINC001707162141   -0.2400
     27 C27        -7.9735    1.8867   52.8567 C.ar    1  ZINC001707162141    0.1500
     28 N28        -7.7147    2.8651   52.0041 N.ar    1  ZINC001707162141   -0.5200
     29 H29        -7.9985    5.7042   49.3534 H       1  ZINC001707162141    0.0600
     30 H30        -9.2168    4.5047   49.8485 H       1  ZINC001707162141    0.0600
     31 H31        -8.1310    5.2234   51.0621 H       1  ZINC001707162141    0.0600
     32 H32        -5.7630    5.2284   49.7865 H       1  ZINC001707162141    0.3300
     33 H33        -5.3499    2.7051   48.7093 H       1  ZINC001707162141    0.1000
     34 H34        -4.2330    4.0910   48.6973 H       1  ZINC001707162141    0.0200
     35 H35        -2.8060    4.5250   50.7066 H       1  ZINC001707162141    0.0700
     36 H36        -4.1039    4.2278   51.8887 H       1  ZINC001707162141    0.0700
     37 H37        -1.2080    4.8601   52.6164 H       1  ZINC001707162141    0.0500
     38 H38        -2.5152    4.5271   53.7779 H       1  ZINC001707162141    0.0600
     39 H39        -1.0085    3.5813   53.8383 H       1  ZINC001707162141    0.0600
     40 H40        -0.4804    1.9552   52.0321 H       1  ZINC001707162141    0.0700
     41 H41        -0.7090    3.2098   50.7896 H       1  ZINC001707162141    0.0700
     42 H42        -2.2229    0.5670   51.0107 H       1  ZINC001707162141    0.0600
     43 H43        -1.0317    1.0109   49.7613 H       1  ZINC001707162141    0.0800
     44 H44        -0.7873    1.5616   47.9705 H       1  ZINC001707162141    0.0800
     45 H45        -1.8526    0.1522   47.7535 H       1  ZINC001707162141    0.0800
     46 H46        -2.8168    1.2536   45.7131 H       1  ZINC001707162141    0.0700
     47 H47        -1.6359    2.5714   45.9067 H       1  ZINC001707162141    0.0700
     48 H48        -0.9845   -0.3817   45.4939 H       1  ZINC001707162141    0.0600
     49 H49        -0.8006    0.9121   44.2854 H       1  ZINC001707162141    0.0600
     50 H50         0.8298    0.5969   46.8963 H       1  ZINC001707162141    0.1000
     51 H51         0.6280    3.0257   44.9222 H       1  ZINC001707162141    0.0900
     52 H52         1.8318    2.8522   46.3087 H       1  ZINC001707162141    0.0900
     53 H53         2.7510    0.7402   45.2463 H       1  ZINC001707162141    0.0900
     54 H54         1.5473    0.9137   43.8599 H       1  ZINC001707162141    0.0900
     55 H55        -7.7818   -0.6532   50.6530 H       1  ZINC001707162141    0.1600
     56 H56        -8.2141   -0.2390   53.0661 H       1  ZINC001707162141    0.1400
     57 H57        -8.1574    2.1030   53.8987 H       1  ZINC001707162141    0.1600
@<TRIPOS>BOND
     1     1     2    1
     2     1    29    1
     3     1    30    1
     4     1    31    1
     5     2     3    1
     6     2     4    1
     7     2    23    1
     8     4     5    1
     9     4    32    1
    10     5     6    1
    11     5    33    1
    12     5    34    1
    13     6     7    1
    14     6    14    1
    15     6     8    1
    16     8     9    1
    17     8    35    1
    18     8    36    1
    19     9    10    1
    20     9    11    1
    21     9    12    1
    22    11    37    1
    23    11    38    1
    24    11    39    1
    25    12    13    1
    26    12    40    1
    27    12    41    1
    28    13    14    1
    29    13    42    1
    30    13    43    1
    31    14    15   am
    32    15    16    2
    33    15    17    1
    34    17    18    1
    35    17    44    1
    36    17    45    1
    37    18    19    1
    38    18    46    1
    39    18    47    1
    40    19    20    1
    41    19    48    1
    42    19    49    1
    43    20    22    1
    44    20    21    1
    45    20    50    1
    46    21    22    1
    47    21    51    1
    48    21    52    1
    49    22    53    1
    50    22    54    1
    51    23    28   ar
    52    23    24   ar
    53    24    25   ar
    54    25    26   ar
    55    25    55    1
    56    26    27   ar
    57    26    56    1
    58    27    28   ar
    59    27    57    1
@<TRIPOS>SUBSTRUCTURE
     1 ZINC001707162141        1 TEMP              0 ****  ****    0 ROOT


##########                                Name:    ZINC000000992968
##########                DOCK_Rotatable_Bonds:                   8
##########                         Heavy_Atoms:                  27
##########                    Molecular_Weight:             384.772
##########                DOCK_Rotatable_Bonds:                   8
##########                       Formal_Charge:           0.0199999
##########                     HBond_Acceptors:                   7
##########                        HBond_Donors:                   0
##########                         Heavy_Atoms:                  27
##########                          Grid_Score:          -31.849014
##########                     Grid_vdw_energy:          -27.735558
##########                      Grid_es_energy:           -4.113458
##########           Internal_energy_repulsive:            7.205364

@<TRIPOS>MOLECULE
ZINC000000992968
 40 42 1 0 0
SMALL
USER_CHARGES


@<TRIPOS>ATOM
      1 O1         -7.2102   -0.7640   66.3346 O.2     1  ZINC000000992968   -0.4600
      2 C2         -6.8909    0.3808   66.0762 C.2     1  ZINC000000992968    0.5600
      3 O3         -7.8390    1.3312   65.9390 O.3     1  ZINC000000992968   -0.2900
      4 C4         -8.7687    1.1674   64.9643 C.ar    1  ZINC000000992968    0.1200
      5 C5        -10.1189    1.3157   65.2626 C.ar    1  ZINC000000992968   -0.1300
      6 C6        -11.0657    1.1503   64.2778 C.ar    1  ZINC000000992968   -0.0400
      7 C7        -10.6677    0.8327   62.9735 C.ar    1  ZINC000000992968   -0.1600
      8 C8        -11.6741    0.6555   61.9183 C.2     1  ZINC000000992968    0.4000
      9 O9        -12.7933    1.0988   62.0670 O.2     1  ZINC000000992968   -0.4200
     10 C10       -11.3162   -0.0770   60.6508 C.3     1  ZINC000000992968    0.0200
     11 O11       -11.0227    0.8841   59.6028 O.3     1  ZINC000000992968   -0.3300
     12 C12       -10.5350    0.3970   58.4452 C.2     1  ZINC000000992968    0.5100
     13 O13       -10.8899    0.8766   57.3870 O.2     1  ZINC000000992968   -0.5000
     14 C14        -9.5693   -0.7199   58.4628 C.ar    1  ZINC000000992968   -0.1300
     15 C15        -9.9955   -2.0200   58.1821 C.ar    1  ZINC000000992968   -0.0500
     16 C16        -9.0887   -3.0585   58.1996 C.ar    1  ZINC000000992968   -0.1200
     17 C17        -7.7575   -2.8146   58.4952 C.ar    1  ZINC000000992968    0.0000
     18 Cl18       -6.6221   -4.1276   58.5158 Cl      1  ZINC000000992968   -0.0500
     19 C19        -7.3286   -1.5273   58.7739 C.ar    1  ZINC000000992968   -0.1200
     20 C20        -8.2247   -0.4795   58.7543 C.ar    1  ZINC000000992968   -0.0400
     21 C21        -9.3069    0.6850   62.6783 C.ar    1  ZINC000000992968   -0.0600
     22 C22        -8.3677    0.8577   63.6693 C.ar    1  ZINC000000992968   -0.1200
     23 C23        -5.4770    0.7290   65.9198 C.2     1  ZINC000000992968   -0.0700
     24 C24        -4.9887    1.9304   65.4886 C.2     1  ZINC000000992968   -0.0900
     25 C25        -3.5899    1.8216   65.4919 C.2     1  ZINC000000992968   -0.2300
     26 C26        -3.2885    0.5751   65.9193 C.2     1  ZINC000000992968    0.0200
     27 O27        -4.4278   -0.0780   66.1815 O.3     1  ZINC000000992968   -0.1500
     28 H28       -10.4249    1.5607   66.2689 H       1  ZINC000000992968    0.1400
     29 H29       -12.1141    1.2650   64.5106 H       1  ZINC000000992968    0.1500
     30 H30       -10.4402   -0.7012   60.8270 H       1  ZINC000000992968    0.1100
     31 H31       -12.1536   -0.7040   60.3447 H       1  ZINC000000992968    0.1100
     32 H32       -11.0332   -2.2114   57.9522 H       1  ZINC000000992968    0.1500
     33 H33        -9.4171   -4.0643   57.9828 H       1  ZINC000000992968    0.1500
     34 H34        -6.2894   -1.3435   59.0033 H       1  ZINC000000992968    0.1500
     35 H35        -7.8889    0.5236   58.9715 H       1  ZINC000000992968    0.1500
     36 H36        -8.9948    0.4397   61.6739 H       1  ZINC000000992968    0.1400
     37 H37        -7.3179    0.7442   63.4426 H       1  ZINC000000992968    0.1400
     38 H38        -5.5673    2.7957   65.2010 H       1  ZINC000000992968    0.1700
     39 H39        -2.8862    2.5896   65.2067 H       1  ZINC000000992968    0.1700
     40 H40        -2.2926    0.1734   66.0341 H       1  ZINC000000992968    0.2200
@<TRIPOS>BOND
     1     1     2    2
     2     2     3    1
     3     2    23    1
     4     3     4    1
     5     4    22   ar
     6     4     5   ar
     7     5     6   ar
     8     5    28    1
     9     6     7   ar
    10     6    29    1
    11     7     8    1
    12     7    21   ar
    13     8     9    2
    14     8    10    1
    15    10    11    1
    16    10    30    1
    17    10    31    1
    18    11    12    1
    19    12    13    2
    20    12    14    1
    21    14    20   ar
    22    14    15   ar
    23    15    16   ar
    24    15    32    1
    25    16    17   ar
    26    16    33    1
    27    17    18    1
    28    17    19   ar
    29    19    20   ar
    30    19    34    1
    31    20    35    1
    32    21    22   ar
    33    21    36    1
    34    22    37    1
    35    23    27    1
    36    23    24    2
    37    24    25    1
    38    24    38    1
    39    25    26    2
    40    25    39    1
    41    26    27    1
    42    26    40    1
@<TRIPOS>SUBSTRUCTURE
     1 ZINC000000992968        1 TEMP              0 ****  ****    0 ROOT


##########                                Name:    ZINC000046390957
##########                DOCK_Rotatable_Bonds:                   9
##########                         Heavy_Atoms:                  29
##########                    Molecular_Weight:             408.521
##########                DOCK_Rotatable_Bonds:                   9
##########                       Formal_Charge:           0.0100005
##########                     HBond_Acceptors:                   6
##########                        HBond_Donors:                   1
##########                         Heavy_Atoms:                  29
##########                          Grid_Score:          -31.848627
##########                     Grid_vdw_energy:          -31.110926
##########                      Grid_es_energy:           -0.737702
##########           Internal_energy_repulsive:           11.869992

@<TRIPOS>MOLECULE
ZINC000046390957
 53 55 1 0 0
SMALL
USER_CHARGES


@<TRIPOS>ATOM
      1 C1         -7.7115   -2.0310   58.3440 C.3     1  ZINC000046390957   -0.1100
      2 C2         -8.9599   -2.2408   57.5264 C.ar    1  ZINC000046390957   -0.0600
      3 C3         -9.8053   -3.2946   57.8136 C.ar    1  ZINC000046390957   -0.1200
      4 C4        -10.9507   -3.4882   57.0635 C.ar    1  ZINC000046390957   -0.1100
      5 C5        -11.2540   -2.6277   56.0244 C.ar    1  ZINC000046390957   -0.1200
      6 C6        -10.4130   -1.5718   55.7324 C.ar    1  ZINC000046390957   -0.0800
      7 C7        -10.7445   -0.6342   54.6001 C.3     1  ZINC000046390957   -0.1100
      8 C8         -9.2646   -1.3716   56.4871 C.ar    1  ZINC000046390957    0.1300
      9 N9         -8.4107   -0.3024   56.1943 N.am    1  ZINC000046390957   -0.6800
     10 C10        -8.5883    0.8877   56.8014 C.2     1  ZINC000046390957    0.5200
     11 O11        -9.4884    1.0320   57.6015 O.2     1  ZINC000046390957   -0.4900
     12 C12        -7.6687    2.0392   56.4860 C.3     1  ZINC000046390957    0.0700
     13 H13        -8.2283    2.9736   56.5299 H       1  ZINC000046390957    0.1100
     14 C14        -6.5308    2.0777   57.5080 C.3     1  ZINC000046390957   -0.1700
     15 O15        -7.1173    1.8675   55.1538 O.3     1  ZINC000046390957   -0.3300
     16 C16        -7.8380    2.3492   54.1292 C.2     1  ZINC000046390957    0.4700
     17 O17        -8.3684    3.4311   54.2195 O.2     1  ZINC000046390957   -0.4800
     18 C18        -7.9858    1.5407   52.8659 C.3     1  ZINC000046390957   -0.0300
     19 C19        -6.9258    1.9545   51.8778 C.2     1  ZINC000046390957    0.0800
     20 C20        -7.1484    2.0135   50.5614 C.2     1  ZINC000046390957   -0.2500
     21 S21        -5.6573    2.5372   49.7823 S.3     1  ZINC000046390957    0.1300
     22 C22        -4.8829    2.6248   51.3042 C.2     1  ZINC000046390957    0.0600
     23 C23        -3.4494    3.0361   51.5203 C.3     1  ZINC000046390957    0.0000
     24 C24        -2.6242    2.6267   50.3274 C.ar    1  ZINC000046390957   -0.0900
     25 C25        -2.0446    1.3724   50.2857 C.ar    1  ZINC000046390957   -0.0900
     26 C26        -1.2877    0.9969   49.1917 C.ar    1  ZINC000046390957   -0.1200
     27 C27        -1.1108    1.8754   48.1392 C.ar    1  ZINC000046390957   -0.1200
     28 C28        -1.6912    3.1294   48.1805 C.ar    1  ZINC000046390957   -0.1200
     29 C29        -2.4517    3.5033   49.2727 C.ar    1  ZINC000046390957   -0.1100
     30 N30        -5.7055    2.2933   52.2415 N.2     1  ZINC000046390957   -0.4500
     31 H31        -7.9596   -1.4799   59.2511 H       1  ZINC000046390957    0.0800
     32 H32        -7.2855   -2.9980   58.6114 H       1  ZINC000046390957    0.0700
     33 H33        -6.9864   -1.4633   57.7608 H       1  ZINC000046390957    0.0600
     34 H34        -9.5712   -3.9684   58.6245 H       1  ZINC000046390957    0.1300
     35 H35       -11.6098   -4.3134   57.2896 H       1  ZINC000046390957    0.1300
     36 H36       -12.1492   -2.7818   55.4402 H       1  ZINC000046390957    0.1300
     37 H37       -11.3502    0.1901   54.9764 H       1  ZINC000046390957    0.0700
     38 H38        -9.8222   -0.2415   54.1718 H       1  ZINC000046390957    0.0600
     39 H39       -11.3006   -1.1732   53.8331 H       1  ZINC000046390957    0.0700
     40 H40        -7.6909   -0.4178   55.5544 H       1  ZINC000046390957    0.4100
     41 H41        -6.9448    2.2067   58.5081 H       1  ZINC000046390957    0.0800
     42 H42        -5.9711    1.1434   57.4641 H       1  ZINC000046390957    0.0800
     43 H43        -5.8656    2.9107   57.2799 H       1  ZINC000046390957    0.0800
     44 H44        -7.8734    0.4815   53.0972 H       1  ZINC000046390957    0.1200
     45 H45        -8.9718    1.7160   52.4358 H       1  ZINC000046390957    0.1300
     46 H46        -8.0779    1.7811   50.0630 H       1  ZINC000046390957    0.1800
     47 H47        -3.3964    4.1177   51.6446 H       1  ZINC000046390957    0.1000
     48 H48        -3.0621    2.5482   52.4147 H       1  ZINC000046390957    0.1000
     49 H49        -2.1829    0.6860   51.1080 H       1  ZINC000046390957    0.1200
     50 H50        -0.8343    0.0172   49.1594 H       1  ZINC000046390957    0.1200
     51 H51        -0.5188    1.5822   47.2847 H       1  ZINC000046390957    0.1200
     52 H52        -1.5527    3.8159   47.3584 H       1  ZINC000046390957    0.1200
     53 H53        -2.9051    4.4830   49.3050 H       1  ZINC000046390957    0.1200
@<TRIPOS>BOND
     1     1     2    1
     2     1    31    1
     3     1    32    1
     4     1    33    1
     5     2     8   ar
     6     2     3   ar
     7     3     4   ar
     8     3    34    1
     9     4     5   ar
    10     4    35    1
    11     5     6   ar
    12     5    36    1
    13     6     7    1
    14     6     8   ar
    15     7    37    1
    16     7    38    1
    17     7    39    1
    18     8     9    1
    19     9    10   am
    20     9    40    1
    21    10    11    2
    22    10    12    1
    23    12    13    1
    24    12    14    1
    25    12    15    1
    26    14    41    1
    27    14    42    1
    28    14    43    1
    29    15    16    1
    30    16    17    2
    31    16    18    1
    32    18    19    1
    33    18    44    1
    34    18    45    1
    35    19    30    1
    36    19    20    2
    37    20    21    1
    38    20    46    1
    39    21    22    1
    40    22    23    1
    41    22    30    2
    42    23    24    1
    43    23    47    1
    44    23    48    1
    45    24    29   ar
    46    24    25   ar
    47    25    26   ar
    48    25    49    1
    49    26    27   ar
    50    26    50    1
    51    27    28   ar
    52    27    51    1
    53    28    29   ar
    54    28    52    1
    55    29    53    1
@<TRIPOS>SUBSTRUCTURE
     1 ZINC000046390957        1 TEMP              0 ****  ****    0 ROOT


##########                                Name:    ZINC000174621331
##########                DOCK_Rotatable_Bonds:                   8
##########                         Heavy_Atoms:                  25
##########                    Molecular_Weight:             366.438
##########                DOCK_Rotatable_Bonds:                   8
##########                       Formal_Charge:        -5.96046e-08
##########                     HBond_Acceptors:                   8
##########                        HBond_Donors:                   3
##########                         Heavy_Atoms:                  25
##########                          Grid_Score:          -31.833460
##########                     Grid_vdw_energy:          -30.307463
##########                      Grid_es_energy:           -1.525997
##########           Internal_energy_repulsive:           14.272214

@<TRIPOS>MOLECULE
ZINC000174621331
 47 48 1 0 0
SMALL
USER_CHARGES


@<TRIPOS>ATOM
      1 C1         -8.5470    0.7061   53.1015 C.3     1  ZINC000174621331    0.0300
      2 O2         -8.7000    0.9071   51.6949 O.3     1  ZINC000174621331   -0.3800
      3 C3         -7.4884    0.7603   50.9516 C.3     1  ZINC000174621331    0.0500
      4 C4         -6.6203    2.0059   51.1403 C.3     1  ZINC000174621331    0.2400
      5 H5         -6.4801    2.1933   52.2049 H       1  ZINC000174621331    0.1300
      6 N6         -5.3169    1.7934   50.5060 N.am    1  ZINC000174621331   -0.7200
      7 C7         -4.2379    2.4756   50.9383 C.2     1  ZINC000174621331    0.5600
      8 O8         -4.3465    3.2682   51.8534 O.2     1  ZINC000174621331   -0.5300
      9 C9         -2.9222    2.2598   50.2995 C.ar    1  ZINC000174621331   -0.1600
     10 C10        -1.7861    2.0597   51.0849 C.ar    1  ZINC000174621331   -0.0200
     11 C11        -0.5612    1.8585   50.4824 C.ar    1  ZINC000174621331   -0.1100
     12 C12         0.6666    1.6422   51.3289 C.3     1  ZINC000174621331   -0.1200
     13 C13        -0.4579    1.8544   49.1029 C.ar    1  ZINC000174621331    0.0400
     14 C14         0.8830    1.6335   48.4517 C.3     1  ZINC000174621331   -0.1600
     15 C15        -1.5806    2.0518   48.3182 C.ar    1  ZINC000174621331   -0.6800
     16 S16        -1.4380    2.0441   46.5620 S.o2    1  ZINC000174621331    2.7000
     17 N17        -2.9717    1.9391   45.9461 N.am    1  ZINC000174621331   -1.2500
     18 O18        -0.9445    3.3248   46.1939 O.2     1  ZINC000174621331   -0.9500
     19 O19        -0.7834    0.8307   46.2180 O.2     1  ZINC000174621331   -0.9600
     20 C20        -2.8118    2.2497   48.9079 C.ar    1  ZINC000174621331    0.0400
     21 C21        -7.2998    3.1924   50.5065 C.2     1  ZINC000174621331   -0.0200
     22 C22        -7.0576    4.4840   50.7944 C.2     1  ZINC000174621331   -0.1900
     23 C23        -7.9115    5.2540   49.9718 C.2     1  ZINC000174621331   -0.2100
     24 C24        -8.6244    4.3870   49.2304 C.2     1  ZINC000174621331    0.0000
     25 C25        -9.6663    4.7531   48.2049 C.3     1  ZINC000174621331   -0.0800
     26 O26        -8.2454    3.1399   49.5543 O.3     1  ZINC000174621331   -0.1600
     27 H27        -8.1765   -0.3022   53.2863 H       1  ZINC000174621331    0.0400
     28 H28        -7.8369    1.4323   53.4972 H       1  ZINC000174621331    0.0400
     29 H29        -9.5109    0.8350   53.5939 H       1  ZINC000174621331    0.0900
     30 H30        -6.9478   -0.1167   51.3075 H       1  ZINC000174621331    0.0700
     31 H31        -7.7235    0.6380   49.8943 H       1  ZINC000174621331    0.0700
     32 H32        -5.2304    1.1617   49.7749 H       1  ZINC000174621331    0.4100
     33 H33        -1.8654    2.0627   52.1620 H       1  ZINC000174621331    0.1400
     34 H34         0.7912    0.5768   51.5229 H       1  ZINC000174621331    0.0800
     35 H35         1.5426    2.0204   50.8019 H       1  ZINC000174621331    0.0800
     36 H36         0.5542    2.1729   52.2743 H       1  ZINC000174621331    0.0700
     37 H37         1.0347    0.5670   48.2849 H       1  ZINC000174621331    0.1100
     38 H38         0.9143    2.1587   47.4970 H       1  ZINC000174621331    0.0700
     39 H39         1.6700    2.0150   49.1022 H       1  ZINC000174621331    0.0900
     40 H40        -3.6242    2.6273   46.1496 H       1  ZINC000174621331    0.4200
     41 H41        -3.2174    1.1894   45.3820 H       1  ZINC000174621331    0.4200
     42 H42        -3.6873    2.4033   48.2944 H       1  ZINC000174621331    0.1600
     43 H43        -6.3476    4.8603   51.5159 H       1  ZINC000174621331    0.1500
     44 H44        -7.9789    6.3315   49.9442 H       1  ZINC000174621331    0.1500
     45 H45        -9.1922    4.8673   47.2301 H       1  ZINC000174621331    0.0800
     46 H46       -10.4178    3.9655   48.1534 H       1  ZINC000174621331    0.0800
     47 H47       -10.1423    5.6915   48.4896 H       1  ZINC000174621331    0.0900
@<TRIPOS>BOND
     1     1     2    1
     2     1    27    1
     3     1    28    1
     4     1    29    1
     5     2     3    1
     6     3     4    1
     7     3    30    1
     8     3    31    1
     9     4     5    1
    10     4     6    1
    11     4    21    1
    12     6     7   am
    13     6    32    1
    14     7     8    2
    15     7     9    1
    16     9    20   ar
    17     9    10   ar
    18    10    11   ar
    19    10    33    1
    20    11    12    1
    21    11    13   ar
    22    12    34    1
    23    12    35    1
    24    12    36    1
    25    13    14    1
    26    13    15   ar
    27    14    37    1
    28    14    38    1
    29    14    39    1
    30    15    16    1
    31    15    20   ar
    32    16    17   am
    33    16    18    2
    34    16    19    2
    35    17    40    1
    36    17    41    1
    37    20    42    1
    38    21    26    1
    39    21    22    2
    40    22    23    1
    41    22    43    1
    42    23    24    2
    43    23    44    1
    44    24    25    1
    45    24    26    1
    46    25    45    1
    47    25    46    1
    48    25    47    1
@<TRIPOS>SUBSTRUCTURE
     1 ZINC000174621331        1 TEMP              0 ****  ****    0 ROOT


##########                                Name:    ZINC001015955459
##########                DOCK_Rotatable_Bonds:                   6
##########                         Heavy_Atoms:                  24
##########                    Molecular_Weight:             347.844
##########                DOCK_Rotatable_Bonds:                   6
##########                       Formal_Charge:          -0.0200002
##########                     HBond_Acceptors:                   6
##########                        HBond_Donors:                   1
##########                         Heavy_Atoms:                  24
##########                          Grid_Score:          -31.825159
##########                     Grid_vdw_energy:          -30.813505
##########                      Grid_es_energy:           -1.011653
##########           Internal_energy_repulsive:            8.943993

@<TRIPOS>MOLECULE
ZINC001015955459
 46 48 1 0 0
SMALL
USER_CHARGES


@<TRIPOS>ATOM
      1 C1        -12.2699   -1.1922   54.8137 C.3     1  ZINC001015955459   -0.1500
      2 C2        -11.2828   -0.3820   53.9710 C.3     1  ZINC001015955459   -0.0300
      3 C3        -11.9004    0.9748   53.6263 C.3     1  ZINC001015955459   -0.1500
      4 C4        -10.0110   -0.1713   54.7514 C.2     1  ZINC001015955459    0.0600
      5 C5         -8.7931    0.1588   54.2415 C.2     1  ZINC001015955459   -0.0800
      6 C6         -8.4687    0.3776   52.8202 C.2     1  ZINC001015955459    0.6100
      7 O7         -9.1550   -0.1310   51.9546 O.2     1  ZINC001015955459   -0.5300
      8 N8         -7.4115    1.1412   52.4800 N.am    1  ZINC001015955459   -0.7100
      9 C9         -7.0902    1.3600   51.0676 C.3     1  ZINC001015955459    0.1400
     10 H10        -7.5428    0.5824   50.4522 H       1  ZINC001015955459    0.1000
     11 C11        -7.5781    2.7521   50.6165 C.3     1  ZINC001015955459   -0.1300
     12 C12        -6.3022    3.5009   50.1754 C.3     1  ZINC001015955459    0.0200
     13 N13        -5.3396    2.4254   49.8240 N.3     1  ZINC001015955459   -0.4900
     14 C14        -3.9577    2.9223   49.8629 C.3     1  ZINC001015955459    0.0800
     15 C15        -3.0812    2.0358   49.0163 C.ar    1  ZINC001015955459   -0.1100
     16 C16        -2.3058    1.0589   49.6121 C.ar    1  ZINC001015955459   -0.1100
     17 C17        -1.5050    0.2420   48.8354 C.ar    1  ZINC001015955459   -0.1000
     18 C18        -1.4713    0.4089   47.4640 C.ar    1  ZINC001015955459   -0.1100
     19 C19        -2.2432    1.3902   46.8675 C.ar    1  ZINC001015955459   -0.0300
     20 Cl20       -2.2009    1.6009   45.1449 Cl      1  ZINC001015955459   -0.0700
     21 C21        -3.0482    2.2037   47.6445 C.ar    1  ZINC001015955459   -0.1000
     22 C22        -5.5601    1.3830   50.8631 C.3     1  ZINC001015955459    0.0100
     23 N23        -7.9300    0.2433   55.2900 N.2     1  ZINC001015955459   -0.4600
     24 C24        -8.5841   -0.0113   56.3835 C.2     1  ZINC001015955459    0.1800
     25 O25        -9.8638   -0.2729   56.0820 O.3     1  ZINC001015955459   -0.1900
     26 H26       -12.4931   -0.6505   55.7327 H       1  ZINC001015955459    0.0600
     27 H27       -13.1898   -1.3447   54.2492 H       1  ZINC001015955459    0.0700
     28 H28       -11.8300   -2.1588   55.0591 H       1  ZINC001015955459    0.0600
     29 H29       -11.0596   -0.9236   53.0518 H       1  ZINC001015955459    0.1300
     30 H30       -11.1971    1.5520   53.0260 H       1  ZINC001015955459    0.0600
     31 H31       -12.8203    0.8224   53.0618 H       1  ZINC001015955459    0.0700
     32 H32       -12.1236    1.5165   54.5453 H       1  ZINC001015955459    0.0600
     33 H33        -6.8634    1.5459   53.1705 H       1  ZINC001015955459    0.4100
     34 H34        -8.2703    2.6578   49.7798 H       1  ZINC001015955459    0.0800
     35 H35        -8.0568    3.2726   51.4461 H       1  ZINC001015955459    0.0700
     36 H36        -6.5092    4.1249   49.3059 H       1  ZINC001015955459    0.0900
     37 H37        -5.9140    4.1059   50.9947 H       1  ZINC001015955459    0.0500
     38 H38        -3.9268    3.9407   49.4755 H       1  ZINC001015955459    0.0900
     39 H39        -3.5974    2.9138   50.8916 H       1  ZINC001015955459    0.0900
     40 H40        -2.3285    0.9310   50.6842 H       1  ZINC001015955459    0.1300
     41 H41        -0.9026   -0.5239   49.3011 H       1  ZINC001015955459    0.1300
     42 H42        -0.8423   -0.2263   46.8580 H       1  ZINC001015955459    0.1300
     43 H43        -3.6507    2.9702   47.1796 H       1  ZINC001015955459    0.1300
     44 H44        -5.0567    1.6569   51.7903 H       1  ZINC001015955459    0.0700
     45 H45        -5.2091    0.4129   50.5111 H       1  ZINC001015955459    0.0900
     46 H46        -8.1623   -0.0161   57.3776 H       1  ZINC001015955459    0.2600
@<TRIPOS>BOND
     1     1     2    1
     2     1    26    1
     3     1    27    1
     4     1    28    1
     5     2     3    1
     6     2     4    1
     7     2    29    1
     8     3    30    1
     9     3    31    1
    10     3    32    1
    11     4    25    1
    12     4     5    2
    13     5     6    1
    14     5    23    1
    15     6     7    2
    16     6     8   am
    17     8     9    1
    18     8    33    1
    19     9    10    1
    20     9    22    1
    21     9    11    1
    22    11    12    1
    23    11    34    1
    24    11    35    1
    25    12    13    1
    26    12    36    1
    27    12    37    1
    28    13    14    1
    29    13    22    1
    30    14    15    1
    31    14    38    1
    32    14    39    1
    33    15    21   ar
    34    15    16   ar
    35    16    17   ar
    36    16    40    1
    37    17    18   ar
    38    17    41    1
    39    18    19   ar
    40    18    42    1
    41    19    20    1
    42    19    21   ar
    43    21    43    1
    44    22    44    1
    45    22    45    1
    46    23    24    2
    47    24    25    1
    48    24    46    1
@<TRIPOS>SUBSTRUCTURE
     1 ZINC001015955459        1 TEMP              0 ****  ****    0 ROOT


##########                                Name:    ZINC000493443319
##########                DOCK_Rotatable_Bonds:                   6
##########                         Heavy_Atoms:                  25
##########                    Molecular_Weight:             348.399
##########                DOCK_Rotatable_Bonds:                   6
##########                       Formal_Charge:        -3.27826e-07
##########                     HBond_Acceptors:                   7
##########                        HBond_Donors:                   0
##########                         Heavy_Atoms:                  25
##########                          Grid_Score:          -31.823093
##########                     Grid_vdw_energy:          -30.045250
##########                      Grid_es_energy:           -1.777844
##########           Internal_energy_repulsive:           50.927372

@<TRIPOS>MOLECULE
ZINC000493443319
 49 51 1 0 0
SMALL
USER_CHARGES


@<TRIPOS>ATOM
      1 C1         -7.1680    2.3337   49.8899 C.3     1  <0>        -0.1500
      2 C2         -6.8653    2.2610   51.3879 C.3     1  <0>         0.0500
      3 O3         -7.8368    1.4334   52.0305 O.3     1  <0>        -0.3200
      4 C4         -7.7246    1.2814   53.3772 C.ar    1  <0>         0.1000
      5 C5         -8.6479    0.5100   54.0674 C.ar    1  <0>        -0.1700
      6 C6         -8.5340    0.3556   55.4352 C.ar    1  <0>        -0.1100
      7 C7         -7.4961    0.9716   56.1186 C.ar    1  <0>         0.0800
      8 O8         -7.3842    0.8199   57.4653 O.3     1  <0>        -0.3000
      9 C9         -8.3857    1.4410   58.2736 C.3     1  <0>         0.1000
     10 C10        -7.8246    1.6973   59.6738 C.3     1  <0>        -0.1800
     11 C11        -8.8011    2.7699   57.6395 C.3     1  <0>        -0.1500
     12 C12        -9.5856    0.5344   58.3715 C.2     1  <0>         0.5100
     13 O13       -10.6918    0.9634   58.1204 O.2     1  <0>        -0.5200
     14 N14        -9.4292   -0.7531   58.7381 N.am    1  <0>        -0.6000
     15 C15       -10.5962   -1.6389   58.8345 C.3     1  <0>         0.0700
     16 C16       -10.3735   -2.8623   57.9310 C.3     1  <0>         0.1300
     17 N17        -9.0086   -3.3479   58.1779 N.am    1  <0>        -0.6300
     18 C18        -8.6148   -4.5790   58.5082 C.2     1  <0>         0.6500
     19 O19        -9.3562   -5.5415   58.4914 O.2     1  <0>        -0.5200
     20 O20        -7.3243   -4.6530   58.8605 O.3     1  <0>        -0.3200
     21 C21        -6.6973   -3.3477   58.6871 C.3     1  <0>         0.0500
     22 C22        -7.8213   -2.4684   58.1156 C.3     1  <0>         0.0800
     23 H23        -7.6055   -2.1563   57.0937 H       1  <0>         0.1100
     24 C24        -8.0879   -1.2778   59.0372 C.3     1  <0>         0.1000
     25 C25        -6.5720    1.7418   55.4283 C.ar    1  <0>        -0.1800
     26 C26        -6.6838    1.8931   54.0598 C.ar    1  <0>        -0.1100
     27 H27        -6.4269    2.9650   49.3996 H       1  <0>         0.0800
     28 H28        -7.1312    1.3315   49.4627 H       1  <0>         0.0700
     29 H29        -8.1614    2.7563   49.7401 H       1  <0>         0.0700
     30 H30        -5.8717    1.8384   51.5377 H       1  <0>         0.0600
     31 H31        -6.9020    3.2631   51.8149 H       1  <0>         0.0600
     32 H32        -9.4561    0.0304   53.5352 H       1  <0>         0.1400
     33 H33        -9.2533   -0.2445   55.9727 H       1  <0>         0.1400
     34 H34        -7.0417    2.4537   59.6185 H       1  <0>         0.0800
     35 H35        -8.6236    2.0483   60.3268 H       1  <0>         0.0900
     36 H36        -7.4086    0.7723   60.0734 H       1  <0>         0.0800
     37 H37        -9.1173    2.5984   56.6106 H       1  <0>         0.0800
     38 H38        -9.6264    3.2008   58.2063 H       1  <0>         0.0900
     39 H39        -7.9553    3.4575   57.6498 H       1  <0>         0.0900
     40 H40       -10.7213   -1.9659   59.8667 H       1  <0>         0.0800
     41 H41       -11.4882   -1.1033   58.5097 H       1  <0>         0.1300
     42 H42       -11.0945   -3.6417   58.1782 H       1  <0>         0.1100
     43 H43       -10.4810   -2.5752   56.8850 H       1  <0>         0.0800
     44 H44        -6.3567   -2.9570   59.6459 H       1  <0>         0.1100
     45 H45        -5.8676   -3.4127   57.9832 H       1  <0>         0.1100
     46 H46        -7.3420   -0.5025   58.8622 H       1  <0>         0.1100
     47 H47        -8.0469   -1.6010   60.0774 H       1  <0>         0.0800
     48 H48        -5.7636    2.2212   55.9603 H       1  <0>         0.1600
     49 H49        -5.9642    2.4929   53.5223 H       1  <0>         0.1300
@<TRIPOS>BOND
     1     1     2    1
     2     1    27    1
     3     1    28    1
     4     1    29    1
     5     2     3    1
     6     2    30    1
     7     2    31    1
     8     3     4    1
     9     4    26   ar
    10     4     5   ar
    11     5     6   ar
    12     5    32    1
    13     6     7   ar
    14     6    33    1
    15     7     8    1
    16     7    25   ar
    17     8     9    1
    18     9    10    1
    19     9    11    1
    20     9    12    1
    21    10    34    1
    22    10    35    1
    23    10    36    1
    24    11    37    1
    25    11    38    1
    26    11    39    1
    27    12    13    2
    28    12    14   am
    29    14    24    1
    30    14    15    1
    31    15    16    1
    32    15    40    1
    33    15    41    1
    34    16    17    1
    35    16    42    1
    36    16    43    1
    37    17    22    1
    38    17    18   am
    39    18    19    2
    40    18    20    1
    41    20    21    1
    42    21    22    1
    43    21    44    1
    44    21    45    1
    45    22    23    1
    46    22    24    1
    47    24    46    1
    48    24    47    1
    49    25    26   ar
    50    25    48    1
    51    26    49    1
@<TRIPOS>SUBSTRUCTURE
     1 <0>         1 TEMP              0 ****  ****    0 ROOT


##########                                Name:    ZINC001362587626
##########                DOCK_Rotatable_Bonds:                   9
##########                         Heavy_Atoms:                  25
##########                    Molecular_Weight:             346.346
##########                DOCK_Rotatable_Bonds:                   9
##########                       Formal_Charge:        -4.02331e-07
##########                     HBond_Acceptors:                  10
##########                        HBond_Donors:                   2
##########                         Heavy_Atoms:                  25
##########                          Grid_Score:          -31.822090
##########                     Grid_vdw_energy:          -30.041281
##########                      Grid_es_energy:           -1.780809
##########           Internal_energy_repulsive:            5.272974

@<TRIPOS>MOLECULE
ZINC001362587626
 43 45 1 0 0
SMALL
USER_CHARGES


@<TRIPOS>ATOM
      1 C1         -7.2722    2.1671   49.7906 C.3     1  ZINC001362587626   -0.1600
      2 C2         -6.8618    2.0298   51.2581 C.3     1  ZINC001362587626    0.1300
      3 H3         -6.9680    2.9932   51.7567 H       1  ZINC001362587626    0.1200
      4 N4         -5.4662    1.5909   51.3358 N.am    1  ZINC001362587626   -0.7100
      5 C5         -4.4698    2.4937   51.2434 C.2     1  ZINC001362587626    0.5100
      6 O6         -4.7284    3.6696   51.0976 O.2     1  ZINC001362587626   -0.5000
      7 C7         -3.0341    2.0420   51.3216 C.3     1  ZINC001362587626    0.1000
      8 N8         -2.5508    1.7165   49.9774 N.pl3   1  ZINC001362587626   -0.3100
      9 C9         -1.5565    0.8628   49.6704 C.2     1  ZINC001362587626    0.1600
     10 N10        -1.4485    0.8652   48.3641 N.2     1  ZINC001362587626   -0.3000
     11 N11        -2.3305    1.6779   47.8935 N.2     1  ZINC001362587626   -0.0700
     12 N12        -3.0021    2.1898   48.8653 N.2     1  ZINC001362587626   -0.0700
     13 C13        -7.7462    1.0141   51.9340 C.2     1  ZINC001362587626    0.5100
     14 O14        -7.9050   -0.0798   51.4345 O.2     1  ZINC001362587626   -0.5200
     15 N15        -8.3607    1.3210   53.0936 N.am    1  ZINC001362587626   -0.6600
     16 C16        -9.1829    0.3766   53.7220 C.ar    1  ZINC001362587626    0.1000
     17 C17       -10.4602    0.1340   53.2347 C.ar    1  ZINC001362587626   -0.1000
     18 C18       -11.2700   -0.7972   53.8541 C.ar    1  ZINC001362587626   -0.1900
     19 C19       -10.8078   -1.4900   54.9635 C.ar    1  ZINC001362587626    0.1200
     20 O20       -11.6058   -2.4066   55.5734 O.3     1  ZINC001362587626   -0.2800
     21 C21       -12.6130   -1.9057   56.4548 C.3     1  ZINC001362587626    0.0100
     22 C22       -14.0478   -2.2752   56.0335 C.3     1  ZINC001362587626    0.0200
     23 O23       -13.8759   -3.4330   56.8755 O.3     1  ZINC001362587626   -0.3700
     24 C24       -12.8643   -2.7993   57.6840 C.3     1  ZINC001362587626    0.0400
     25 C25        -9.5316   -1.2485   55.4509 C.ar    1  ZINC001362587626   -0.1300
     26 C26        -8.7188   -0.3213   54.8290 C.ar    1  ZINC001362587626   -0.0800
     27 H27        -7.1659    1.2037   49.2918 H       1  ZINC001362587626    0.0700
     28 H28        -8.3105    2.4937   49.7327 H       1  ZINC001362587626    0.0800
     29 H29        -6.6325    2.9018   49.3016 H       1  ZINC001362587626    0.0800
     30 H30        -5.2593    0.6506   51.4537 H       1  ZINC001362587626    0.4100
     31 H31        -2.4243    2.8409   51.7434 H       1  ZINC001362587626    0.1500
     32 H32        -2.9652    1.1586   51.9563 H       1  ZINC001362587626    0.1400
     33 H33        -0.9624    0.2880   50.3655 H       1  ZINC001362587626    0.2400
     34 H34        -8.2336    2.1957   53.4931 H       1  ZINC001362587626    0.4100
     35 H35       -10.8205    0.6739   52.3714 H       1  ZINC001362587626    0.1300
     36 H36       -12.2636   -0.9860   53.4752 H       1  ZINC001362587626    0.1400
     37 H37       -12.4811   -0.8512   56.6967 H       1  ZINC001362587626    0.0900
     38 H38       -14.8057   -1.5784   56.3913 H       1  ZINC001362587626    0.1000
     39 H39       -14.1494   -2.5115   54.9743 H       1  ZINC001362587626    0.1000
     40 H40       -12.0272   -3.4512   57.9339 H       1  ZINC001362587626    0.1000
     41 H41       -13.2607   -2.2625   58.5458 H       1  ZINC001362587626    0.1000
     42 H42        -9.1724   -1.7883   56.3145 H       1  ZINC001362587626    0.1400
     43 H43        -7.7251   -0.1337   55.2082 H       1  ZINC001362587626    0.1500
@<TRIPOS>BOND
     1     1     2    1
     2     1    27    1
     3     1    28    1
     4     1    29    1
     5     2     3    1
     6     2     4    1
     7     2    13    1
     8     4     5   am
     9     4    30    1
    10     5     6    2
    11     5     7    1
    12     7     8    1
    13     7    31    1
    14     7    32    1
    15     8    12    1
    16     8     9    1
    17     9    10    2
    18     9    33    1
    19    10    11    1
    20    11    12    2
    21    13    14    2
    22    13    15   am
    23    15    16    1
    24    15    34    1
    25    16    26   ar
    26    16    17   ar
    27    17    18   ar
    28    17    35    1
    29    18    19   ar
    30    18    36    1
    31    19    20    1
    32    19    25   ar
    33    20    21    1
    34    21    24    1
    35    21    22    1
    36    21    37    1
    37    22    23    1
    38    22    38    1
    39    22    39    1
    40    23    24    1
    41    24    40    1
    42    24    41    1
    43    25    26   ar
    44    25    42    1
    45    26    43    1
@<TRIPOS>SUBSTRUCTURE
     1 ZINC001362587626        1 TEMP              0 ****  ****    0 ROOT


##########                                Name:    ZINC001570985666
##########                DOCK_Rotatable_Bonds:                   7
##########                         Heavy_Atoms:                  26
##########                    Molecular_Weight:             357.415
##########                DOCK_Rotatable_Bonds:                   7
##########                       Formal_Charge:          -0.0100001
##########                     HBond_Acceptors:                   9
##########                        HBond_Donors:                   3
##########                         Heavy_Atoms:                  26
##########                          Grid_Score:          -31.808485
##########                     Grid_vdw_energy:          -30.396725
##########                      Grid_es_energy:           -1.411760
##########           Internal_energy_repulsive:           11.944592

@<TRIPOS>MOLECULE
ZINC001570985666
 49 52 1 0 0
SMALL
USER_CHARGES


@<TRIPOS>ATOM
      1 C1         -4.6442    5.1512   51.2189 C.3     1  ZINC001570985666   -0.1600
      2 C2         -4.9699    4.0719   50.1843 C.3     1  ZINC001570985666    0.1300
      3 H3         -5.0598    4.5216   49.1956 H       1  ZINC001570985666    0.0800
      4 C4         -6.2888    3.3646   50.5613 C.3     1  ZINC001570985666    0.1400
      5 H5         -6.4895    3.4658   51.6279 H       1  ZINC001570985666    0.1100
      6 N6         -7.4045    3.8944   49.7733 N.am    1  ZINC001570985666   -0.7200
      7 C7         -8.6696    3.7500   50.2148 C.2     1  ZINC001570985666    0.6000
      8 O8         -8.8852    3.1788   51.2667 O.2     1  ZINC001570985666   -0.5300
      9 C9         -9.7914    4.2843   49.4234 C.2     1  ZINC001570985666   -0.2300
     10 C10       -11.1153    3.9143   49.5232 C.2     1  ZINC001570985666    0.0700
     11 N11       -11.8232    4.6338   48.6299 N.pl3   1  ZINC001570985666   -0.5200
     12 C12       -10.9746    5.4703   47.9477 C.2     1  ZINC001570985666    0.0600
     13 C13       -11.3677    6.4208   46.8833 C.2     1  ZINC001570985666    0.2500
     14 N14       -10.5682    7.2288   46.2131 N.2     1  ZINC001570985666   -0.3100
     15 N15       -11.2901    7.8928   45.3771 N.pl3   1  ZINC001570985666   -0.2200
     16 N16       -12.5201    7.5324   45.4952 N.2     1  ZINC001570985666   -0.0400
     17 N17       -12.6056    6.6248   46.4076 N.2     1  ZINC001570985666   -0.2600
     18 C18        -9.7156    5.2824   48.4176 C.2     1  ZINC001570985666   -0.0600
     19 C19        -6.0063    1.8840   50.1938 C.3     1  ZINC001570985666   -0.1500
     20 C20        -4.5058    1.7543   50.5562 C.3     1  ZINC001570985666    0.1000
     21 N21        -3.9110    3.0521   50.1754 N.am    1  ZINC001570985666   -0.6200
     22 C22        -2.6148    3.2634   49.8728 C.2     1  ZINC001570985666    0.5300
     23 O23        -2.2355    4.3759   49.5737 O.2     1  ZINC001570985666   -0.5300
     24 C24        -1.6367    2.1175   49.9064 C.3     1  ZINC001570985666   -0.1300
     25 C25        -1.1175    1.8486   48.4926 C.3     1  ZINC001570985666   -0.1000
     26 C26        -0.6221    0.4080   48.2818 C.3     1  ZINC001570985666   -0.1300
     27 C27        -1.2845    0.4668   46.8952 C.3     1  ZINC001570985666   -0.1400
     28 C28        -2.2289    1.5312   47.4781 C.3     1  ZINC001570985666   -0.1400
     29 H29        -3.7092    5.6423   50.9495 H       1  ZINC001570985666    0.0700
     30 H30        -5.4479    5.8871   51.2415 H       1  ZINC001570985666    0.0700
     31 H31        -4.5435    4.6928   52.2027 H       1  ZINC001570985666    0.0600
     32 H32        -7.2327    4.3490   48.9338 H       1  ZINC001570985666    0.4000
     33 H33       -11.5164    3.1745   50.2002 H       1  ZINC001570985666    0.1800
     34 H34       -12.7810    4.5704   48.4909 H       1  ZINC001570985666    0.4300
     35 H35       -10.9584    8.5601   44.7560 H       1  ZINC001570985666    0.4800
     36 H36        -8.8233    5.7916   48.0844 H       1  ZINC001570985666    0.1600
     37 H37        -6.6137    1.2091   50.7968 H       1  ZINC001570985666    0.0900
     38 H38        -6.1680    1.7076   49.1303 H       1  ZINC001570985666    0.0800
     39 H39        -4.3875    1.5808   51.6257 H       1  ZINC001570985666    0.0800
     40 H40        -4.0465    0.9464   49.9868 H       1  ZINC001570985666    0.0800
     41 H41        -0.8009    2.3721   50.5580 H       1  ZINC001570985666    0.0900
     42 H42        -2.1350    1.2256   50.2862 H       1  ZINC001570985666    0.0900
     43 H43        -0.4155    2.6079   48.1478 H       1  ZINC001570985666    0.1000
     44 H44         0.4638    0.3209   48.2437 H       1  ZINC001570985666    0.0700
     45 H45        -1.0824   -0.3149   48.9553 H       1  ZINC001570985666    0.0800
     46 H46        -0.6273    0.8472   46.1132 H       1  ZINC001570985666    0.0800
     47 H47        -1.7892   -0.4572   46.6129 H       1  ZINC001570985666    0.0700
     48 H48        -3.1285    1.1153   47.9319 H       1  ZINC001570985666    0.0800
     49 H49        -2.4401    2.3507   46.7913 H       1  ZINC001570985666    0.0700
@<TRIPOS>BOND
     1     1     2    1
     2     1    29    1
     3     1    30    1
     4     1    31    1
     5     2     3    1
     6     2    21    1
     7     2     4    1
     8     4     5    1
     9     4     6    1
    10     4    19    1
    11     6     7   am
    12     6    32    1
    13     7     8    2
    14     7     9    1
    15     9    18    1
    16     9    10    2
    17    10    11    1
    18    10    33    1
    19    11    12    1
    20    11    34    1
    21    12    13    1
    22    12    18    2
    23    13    17    1
    24    13    14    2
    25    14    15    1
    26    15    16    1
    27    15    35    1
    28    16    17    2
    29    18    36    1
    30    19    20    1
    31    19    37    1
    32    19    38    1
    33    20    21    1
    34    20    39    1
    35    20    40    1
    36    21    22   am
    37    22    23    2
    38    22    24    1
    39    24    25    1
    40    24    41    1
    41    24    42    1
    42    25    28    1
    43    25    26    1
    44    25    43    1
    45    26    27    1
    46    26    44    1
    47    26    45    1
    48    27    28    1
    49    27    46    1
    50    27    47    1
    51    28    48    1
    52    28    49    1
@<TRIPOS>SUBSTRUCTURE
     1 ZINC001570985666        1 TEMP              0 ****  ****    0 ROOT


##########                                Name:    ZINC000675319328
##########                DOCK_Rotatable_Bonds:                   7
##########                         Heavy_Atoms:                  26
##########                    Molecular_Weight:             363.475
##########                DOCK_Rotatable_Bonds:                   7
##########                       Formal_Charge:          -0.0200007
##########                     HBond_Acceptors:                   6
##########                        HBond_Donors:                   1
##########                         Heavy_Atoms:                  26
##########                          Grid_Score:          -31.806974
##########                     Grid_vdw_energy:          -31.002985
##########                      Grid_es_energy:           -0.803990
##########           Internal_energy_repulsive:           18.882833

@<TRIPOS>MOLECULE
ZINC000675319328
 56 58 1 0 0
SMALL
USER_CHARGES


@<TRIPOS>ATOM
      1 C1        -11.4047    1.1057   54.5675 C.3     1  ZINC000675319328   -0.1600
      2 C2        -10.0728    0.4974   54.1241 C.3     1  ZINC000675319328    0.1600
      3 H3        -10.2425   -0.5088   53.7408 H       1  ZINC000675319328    0.0900
      4 C4         -9.1182    0.4340   55.3181 C.3     1  ZINC000675319328   -0.1200
      5 C5         -9.7448   -0.4130   56.4275 C.3     1  ZINC000675319328   -0.1200
      6 H6        -10.5630    0.1237   56.9078 H       1  ZINC000675319328    0.0800
      7 C7        -10.2309   -1.7794   55.8719 C.3     1  ZINC000675319328   -0.1500
      8 C8        -10.1207   -2.6673   57.1369 C.3     1  ZINC000675319328    0.0500
      9 O9         -8.9484   -2.1993   57.8226 O.3     1  ZINC000675319328   -0.3900
     10 C10        -8.6812   -0.8349   57.4638 C.3     1  ZINC000675319328    0.0500
     11 N11        -9.4831    1.3280   53.0711 N.am    1  ZINC000675319328   -0.7400
     12 C12        -8.6081    0.7895   52.1988 C.2     1  ZINC000675319328    0.7000
     13 O13        -8.3082   -0.3856   52.2857 O.2     1  ZINC000675319328   -0.5900
     14 N14        -8.0656    1.5536   51.2301 N.am    1  ZINC000675319328   -0.6200
     15 C15        -8.4493    2.9767   51.1500 C.3     1  ZINC000675319328    0.1300
     16 C16        -7.2309    3.8683   50.8567 C.3     1  ZINC000675319328   -0.1300
     17 C17        -6.0371    3.3716   51.6420 C.3     1  ZINC000675319328    0.0700
     18 N18        -5.2778    2.4341   50.8164 N.3     1  ZINC000675319328   -0.5500
     19 C19        -3.8364    2.5549   51.0724 C.3     1  ZINC000675319328    0.1000
     20 C20        -3.0700    2.0730   49.8676 C.ar    1  ZINC000675319328   -0.0900
     21 C21        -3.4359    2.4939   48.6026 C.ar    1  ZINC000675319328   -0.0900
     22 C22        -2.7338    2.0527   47.4971 C.ar    1  ZINC000675319328   -0.1500
     23 C23        -1.6632    1.1893   47.6567 C.ar    1  ZINC000675319328    0.1000
     24 F24        -0.9759    0.7578   46.5767 F       1  ZINC000675319328   -0.1400
     25 C25        -1.2973    0.7690   48.9242 C.ar    1  ZINC000675319328   -0.1500
     26 C26        -1.9980    1.2153   50.0287 C.ar    1  ZINC000675319328   -0.0700
     27 C27        -5.6892    1.0815   50.8625 C.3     1  ZINC000675319328    0.0500
     28 C28        -7.1236    0.9482   50.3107 C.3     1  ZINC000675319328    0.1100
     29 H29       -12.0847    1.1508   53.7168 H       1  ZINC000675319328    0.0600
     30 H30       -11.8434    0.4878   55.3509 H       1  ZINC000675319328    0.0700
     31 H31       -11.2350    2.1119   54.9507 H       1  ZINC000675319328    0.0500
     32 H32        -8.1755   -0.0155   55.0062 H       1  ZINC000675319328    0.0700
     33 H33        -8.9346    1.4419   55.6903 H       1  ZINC000675319328    0.0900
     34 H34       -11.2620   -1.7176   55.5240 H       1  ZINC000675319328    0.0800
     35 H35        -9.5723   -2.1387   55.0812 H       1  ZINC000675319328    0.0800
     36 H36       -11.0022   -2.5414   57.7655 H       1  ZINC000675319328    0.0600
     37 H37       -10.0020   -3.7137   56.8555 H       1  ZINC000675319328    0.0900
     38 H38        -7.6874   -0.7564   57.0228 H       1  ZINC000675319328    0.0700
     39 H39        -8.7458   -0.2006   58.3479 H       1  ZINC000675319328    0.0700
     40 H40        -9.7223    2.2654   53.0017 H       1  ZINC000675319328    0.3900
     41 H41        -9.1842    3.1039   50.3552 H       1  ZINC000675319328    0.0600
     42 H42        -8.8939    3.2804   52.0978 H       1  ZINC000675319328    0.0900
     43 H43        -7.0041    3.8338   49.7912 H       1  ZINC000675319328    0.0800
     44 H44        -7.4543    4.8949   51.1467 H       1  ZINC000675319328    0.0800
     45 H45        -5.4025    4.2154   51.9128 H       1  ZINC000675319328    0.0700
     46 H46        -6.3795    2.8670   52.5454 H       1  ZINC000675319328    0.0400
     47 H47        -3.5882    3.5982   51.2675 H       1  ZINC000675319328    0.0900
     48 H48        -3.5693    1.9498   51.9388 H       1  ZINC000675319328    0.0400
     49 H49        -4.2710    3.1674   48.4783 H       1  ZINC000675319328    0.1300
     50 H50        -3.0203    2.3810   46.5089 H       1  ZINC000675319328    0.1400
     51 H51        -0.4627    0.0952   49.0500 H       1  ZINC000675319328    0.1400
     52 H52        -1.7126    0.8878   51.0175 H       1  ZINC000675319328    0.1300
     53 H53        -5.0111    0.4764   50.2607 H       1  ZINC000675319328    0.0900
     54 H54        -5.6654    0.7311   51.8943 H       1  ZINC000675319328    0.0300
     55 H55        -7.3680   -0.1068   50.1869 H       1  ZINC000675319328    0.0700
     56 H56        -7.1892    1.4507   49.3458 H       1  ZINC000675319328    0.0900
@<TRIPOS>BOND
     1     1     2    1
     2     1    29    1
     3     1    30    1
     4     1    31    1
     5     2     3    1
     6     2     4    1
     7     2    11    1
     8     4     5    1
     9     4    32    1
    10     4    33    1
    11     5     6    1
    12     5    10    1
    13     5     7    1
    14     7     8    1
    15     7    34    1
    16     7    35    1
    17     8     9    1
    18     8    36    1
    19     8    37    1
    20     9    10    1
    21    10    38    1
    22    10    39    1
    23    11    12   am
    24    11    40    1
    25    12    13    2
    26    12    14   am
    27    14    28    1
    28    14    15    1
    29    15    16    1
    30    15    41    1
    31    15    42    1
    32    16    17    1
    33    16    43    1
    34    16    44    1
    35    17    18    1
    36    17    45    1
    37    17    46    1
    38    18    19    1
    39    18    27    1
    40    19    20    1
    41    19    47    1
    42    19    48    1
    43    20    26   ar
    44    20    21   ar
    45    21    22   ar
    46    21    49    1
    47    22    23   ar
    48    22    50    1
    49    23    24    1
    50    23    25   ar
    51    25    26   ar
    52    25    51    1
    53    26    52    1
    54    27    28    1
    55    27    53    1
    56    27    54    1
    57    28    55    1
    58    28    56    1
@<TRIPOS>SUBSTRUCTURE
     1 ZINC000675319328        1 TEMP              0 ****  ****    0 ROOT


##########                                Name:    ZINC000609484313
##########                DOCK_Rotatable_Bonds:                  10
##########                         Heavy_Atoms:                  26
##########                    Molecular_Weight:             361.487
##########                DOCK_Rotatable_Bonds:                  10
##########                       Formal_Charge:          -0.0200004
##########                     HBond_Acceptors:                   7
##########                        HBond_Donors:                   1
##########                         Heavy_Atoms:                  26
##########                          Grid_Score:          -31.797787
##########                     Grid_vdw_energy:          -30.485214
##########                      Grid_es_energy:           -1.312572
##########           Internal_energy_repulsive:           32.332726

@<TRIPOS>MOLECULE
ZINC000609484313
 57 58 1 0 0
SMALL
USER_CHARGES


@<TRIPOS>ATOM
      1 C1        -10.1565    4.6754   48.5204 C.3     1  ZINC000609484313   -0.1500
      2 C2        -10.0965    4.9303   50.0278 C.3     1  ZINC000609484313   -0.1300
      3 C3         -8.6552    4.7691   50.5153 C.3     1  ZINC000609484313   -0.1100
      4 C4         -8.3057    3.2815   50.5907 C.3     1  ZINC000609484313   -0.1100
      5 C5         -7.1040    3.0861   51.5173 C.3     1  ZINC000609484313    0.0800
      6 H6         -6.8341    4.0409   51.9685 H       1  ZINC000609484313    0.1200
      7 C7         -7.4598    2.1011   52.6008 C.2     1  ZINC000609484313    0.4900
      8 O8         -8.0089    1.0580   52.3156 O.2     1  ZINC000609484313   -0.5000
      9 N9         -7.1680    2.3795   53.8868 N.am    1  ZINC000609484313   -0.6300
     10 C10        -7.4959    1.4669   54.8897 C.2     1  ZINC000609484313    0.2400
     11 N11        -8.0990    0.3171   54.7378 N.2     1  ZINC000609484313   -0.3900
     12 O12        -8.2444   -0.2498   55.7959 O.3     1  ZINC000609484313    0.1000
     13 C13        -7.7455    0.4648   56.8149 C.2     1  ZINC000609484313   -0.0200
     14 C14        -7.7458    0.0778   58.2714 C.3     1  ZINC000609484313   -0.0800
     15 C15        -7.2361    1.5977   56.2799 C.2     1  ZINC000609484313   -0.2300
     16 N16        -5.9667    2.5720   50.7424 N.3     1  ZINC000609484313   -0.5000
     17 C17        -4.9562    1.9724   51.6248 C.3     1  ZINC000609484313    0.0400
     18 C18        -3.8289    1.3795   50.7763 C.3     1  ZINC000609484313    0.0500
     19 N19        -3.2372    2.4369   49.9447 N.3     1  ZINC000609484313   -0.5100
     20 C20        -2.0999    1.9227   49.1698 C.3     1  ZINC000609484313    0.1800
     21 H21        -1.9924    0.8529   49.3487 H       1  ZINC000609484313    0.1200
     22 C22        -2.3360    2.1593   47.7362 C.1     1  ZINC000609484313    0.1700
     23 N23        -2.5182    2.3418   46.6299 N.1     1  ZINC000609484313   -0.4200
     24 C24        -0.8212    2.6432   49.6018 C.3     1  ZINC000609484313   -0.0800
     25 C25        -1.0655    4.1535   49.6125 C.3     1  ZINC000609484313   -0.1400
     26 C26        -0.4246    2.1808   51.0054 C.3     1  ZINC000609484313   -0.1500
     27 C27        -4.2478    3.0364   49.0622 C.3     1  ZINC000609484313    0.0500
     28 C28        -5.3750    3.6293   49.9108 C.3     1  ZINC000609484313    0.0400
     29 H29        -9.5165    5.3915   48.0051 H       1  ZINC000609484313    0.0500
     30 H30        -9.8125    3.6629   48.3091 H       1  ZINC000609484313    0.0500
     31 H31       -11.1833    4.7903   48.1731 H       1  ZINC000609484313    0.0500
     32 H32       -10.4404    5.9428   50.2390 H       1  ZINC000609484313    0.0600
     33 H33       -10.7365    4.2142   50.5432 H       1  ZINC000609484313    0.0600
     34 H34        -7.9787    5.2665   49.8204 H       1  ZINC000609484313    0.0800
     35 H35        -8.5540    5.2166   51.5041 H       1  ZINC000609484313    0.0600
     36 H36        -9.1592    2.7270   50.9808 H       1  ZINC000609484313    0.0700
     37 H37        -8.0594    2.9152   49.5941 H       1  ZINC000609484313    0.0800
     38 H38        -6.7299    3.2142   54.1150 H       1  ZINC000609484313    0.4200
     39 H39        -8.2233   -0.8950   58.3887 H       1  ZINC000609484313    0.0800
     40 H40        -6.7190    0.0247   58.6334 H       1  ZINC000609484313    0.0900
     41 H41        -8.2954    0.8238   58.8455 H       1  ZINC000609484313    0.0900
     42 H42        -6.7509    2.4155   56.7918 H       1  ZINC000609484313    0.1900
     43 H43        -4.5498    2.7384   52.2854 H       1  ZINC000609484313    0.0800
     44 H44        -5.4157    1.1841   52.2211 H       1  ZINC000609484313    0.0800
     45 H45        -3.0640    0.9599   51.4297 H       1  ZINC000609484313    0.0900
     46 H46        -4.2306    0.5948   50.1352 H       1  ZINC000609484313    0.0400
     47 H47        -0.0187    2.4099   48.9021 H       1  ZINC000609484313    0.0800
     48 H48        -1.8681    4.3868   50.3123 H       1  ZINC000609484313    0.0600
     49 H49        -0.1545    4.6668   49.9203 H       1  ZINC000609484313    0.0500
     50 H50        -1.3480    4.4830   48.6126 H       1  ZINC000609484313    0.0700
     51 H51         0.4313    2.7606   51.3506 H       1  ZINC000609484313    0.0700
     52 H52        -1.2624    2.3286   51.6869 H       1  ZINC000609484313    0.0600
     53 H53        -0.1604    1.1236   50.9785 H       1  ZINC000609484313    0.0500
     54 H54        -3.7882    3.8247   48.4659 H       1  ZINC000609484313    0.0900
     55 H55        -4.6541    2.2704   48.4017 H       1  ZINC000609484313    0.0400
     56 H56        -6.1399    4.0489   49.2574 H       1  ZINC000609484313    0.0800
     57 H57        -4.9734    4.4141   50.5518 H       1  ZINC000609484313    0.0800
@<TRIPOS>BOND
     1     1     2    1
     2     1    29    1
     3     1    30    1
     4     1    31    1
     5     2     3    1
     6     2    32    1
     7     2    33    1
     8     3     4    1
     9     3    34    1
    10     3    35    1
    11     4     5    1
    12     4    36    1
    13     4    37    1
    14     5     6    1
    15     5     7    1
    16     5    16    1
    17     7     8    2
    18     7     9   am
    19     9    10    1
    20     9    38    1
    21    10    15    1
    22    10    11    2
    23    11    12    1
    24    12    13    1
    25    13    14    1
    26    13    15    2
    27    14    39    1
    28    14    40    1
    29    14    41    1
    30    15    42    1
    31    16    28    1
    32    16    17    1
    33    17    18    1
    34    17    43    1
    35    17    44    1
    36    18    19    1
    37    18    45    1
    38    18    46    1
    39    19    20    1
    40    19    27    1
    41    20    21    1
    42    20    22    1
    43    20    24    1
    44    22    23    3
    45    24    25    1
    46    24    26    1
    47    24    47    1
    48    25    48    1
    49    25    49    1
    50    25    50    1
    51    26    51    1
    52    26    52    1
    53    26    53    1
    54    27    28    1
    55    27    54    1
    56    27    55    1
    57    28    56    1
    58    28    57    1
@<TRIPOS>SUBSTRUCTURE
     1 ZINC000609484313        1 TEMP              0 ****  ****    0 ROOT


##########                                Name:    ZINC000479580180
##########                DOCK_Rotatable_Bonds:                   5
##########                         Heavy_Atoms:                  30
##########                    Molecular_Weight:             404.444
##########                DOCK_Rotatable_Bonds:                   5
##########                       Formal_Charge:           0.0299995
##########                     HBond_Acceptors:                   7
##########                        HBond_Donors:                   1
##########                         Heavy_Atoms:                  30
##########                          Grid_Score:          -31.781872
##########                     Grid_vdw_energy:          -30.926815
##########                      Grid_es_energy:           -0.855056
##########           Internal_energy_repulsive:           16.042046

@<TRIPOS>MOLECULE
ZINC000479580180
 51 55 1 0 0
SMALL
USER_CHARGES


@<TRIPOS>ATOM
      1 O1         -3.0346    3.2746   52.8313 O.2     1  ZINC000479580180   -0.5200
      2 C2         -3.5082    2.4536   52.0746 C.2     1  ZINC000479580180    0.5200
      3 C3         -2.6065    1.6556   51.1684 C.3     1  ZINC000479580180   -0.0700
      4 C4         -2.7665    2.1376   49.7494 C.2     1  ZINC000479580180   -0.1600
      5 C5         -3.3676    3.2647   49.3457 C.2     1  ZINC000479580180    0.0300
      6 O6         -3.3178    3.3620   48.0053 O.3     1  ZINC000479580180   -0.1900
      7 C7         -2.6809    2.3015   47.4697 C.ar    1  ZINC000479580180    0.0800
      8 C8         -2.3712    1.9303   46.1676 C.ar    1  ZINC000479580180   -0.1400
      9 C9         -1.6914    0.7515   45.9333 C.ar    1  ZINC000479580180    0.1300
     10 F10        -1.3909    0.3929   44.6658 F       1  ZINC000479580180   -0.1300
     11 C11        -1.3131   -0.0691   46.9883 C.ar    1  ZINC000479580180   -0.1600
     12 C12        -1.6097    0.2798   48.2769 C.ar    1  ZINC000479580180   -0.0400
     13 C13        -2.2893    1.4694   48.5323 C.ar    1  ZINC000479580180   -0.1200
     14 N14        -4.8404    2.2508   52.0481 N.am    1  ZINC000479580180   -0.6200
     15 C15        -5.7330    3.0250   52.9213 C.3     1  ZINC000479580180    0.1100
     16 C16        -6.8188    3.6790   52.0611 C.3     1  ZINC000479580180   -0.1300
     17 C17        -7.5264    2.6028   51.2344 C.3     1  ZINC000479580180   -0.0100
     18 C18        -8.6180    3.2380   50.4123 C.2     1  ZINC000479580180    0.3000
     19 N19        -9.8613    3.3960   50.7823 N.2     1  ZINC000479580180   -0.5300
     20 C20       -10.5526    3.9962   49.8041 C.2     1  ZINC000479580180    0.2700
     21 C21       -11.9944    4.3449   49.8521 C.ar    1  ZINC000479580180   -0.0200
     22 C22       -12.5998    4.9669   48.7622 C.ar    1  ZINC000479580180   -0.0800
     23 C23       -13.9411    5.2885   48.8121 C.ar    1  ZINC000479580180   -0.1300
     24 C24       -14.6838    4.9950   49.9414 C.ar    1  ZINC000479580180   -0.1000
     25 C25       -14.0877    4.3777   51.0262 C.ar    1  ZINC000479580180   -0.1200
     26 C26       -12.7485    4.0463   50.9850 C.ar    1  ZINC000479580180   -0.0800
     27 N27        -9.7418    4.2257   48.7946 N.2     1  ZINC000479580180   -0.3000
     28 N28        -8.4782    3.7446   49.1741 N.pl3   1  ZINC000479580180   -0.4800
     29 C29        -6.5168    1.9251   50.3051 C.3     1  ZINC000479580180   -0.1400
     30 C30        -5.4282    1.2554   51.1412 C.3     1  ZINC000479580180    0.1200
     31 H31        -1.5703    1.7849   51.4813 H       1  ZINC000479580180    0.1100
     32 H32        -2.8746    0.6007   51.2261 H       1  ZINC000479580180    0.1100
     33 H33        -3.8258    3.9901   50.0016 H       1  ZINC000479580180    0.2100
     34 H34        -2.6616    2.5618   45.3409 H       1  ZINC000479580180    0.1500
     35 H35        -0.7818   -0.9882   46.7897 H       1  ZINC000479580180    0.1400
     36 H36        -1.3141   -0.3617   49.0939 H       1  ZINC000479580180    0.1300
     37 H37        -6.1958    2.3612   53.6516 H       1  ZINC000479580180    0.0800
     38 H38        -5.1610    3.7965   53.4367 H       1  ZINC000479580180    0.0900
     39 H39        -7.5428    4.1772   52.7059 H       1  ZINC000479580180    0.0900
     40 H40        -6.3627    4.4097   51.3930 H       1  ZINC000479580180    0.0700
     41 H41        -7.9609    1.8591   51.9025 H       1  ZINC000479580180    0.1200
     42 H42       -12.0207    5.1971   47.8803 H       1  ZINC000479580180    0.1400
     43 H43       -14.4115    5.7707   47.9679 H       1  ZINC000479580180    0.1300
     44 H44       -15.7330    5.2491   49.9765 H       1  ZINC000479580180    0.1300
     45 H45       -14.6721    4.1511   51.9057 H       1  ZINC000479580180    0.1300
     46 H46       -12.2841    3.5641   51.8324 H       1  ZINC000479580180    0.1300
     47 H47        -7.6656    3.7677   48.6448 H       1  ZINC000479580180    0.4400
     48 H48        -7.0259    1.1749   49.7002 H       1  ZINC000479580180    0.0900
     49 H49        -6.0636    2.6722   49.6535 H       1  ZINC000479580180    0.0700
     50 H50        -4.6555    0.8572   50.4834 H       1  ZINC000479580180    0.1000
     51 H51        -5.8637    0.4468   51.7282 H       1  ZINC000479580180    0.0800
@<TRIPOS>BOND
     1     1     2    2
     2     2     3    1
     3     2    14   am
     4     3     4    1
     5     3    31    1
     6     3    32    1
     7     4    13    1
     8     4     5    2
     9     5     6    1
    10     5    33    1
    11     6     7    1
    12     7    13   ar
    13     7     8   ar
    14     8     9   ar
    15     8    34    1
    16     9    10    1
    17     9    11   ar
    18    11    12   ar
    19    11    35    1
    20    12    13   ar
    21    12    36    1
    22    14    30    1
    23    14    15    1
    24    15    16    1
    25    15    37    1
    26    15    38    1
    27    16    17    1
    28    16    39    1
    29    16    40    1
    30    17    18    1
    31    17    29    1
    32    17    41    1
    33    18    28    1
    34    18    19    2
    35    19    20    1
    36    20    21    1
    37    20    27    2
    38    21    26   ar
    39    21    22   ar
    40    22    23   ar
    41    22    42    1
    42    23    24   ar
    43    23    43    1
    44    24    25   ar
    45    24    44    1
    46    25    26   ar
    47    25    45    1
    48    26    46    1
    49    27    28    1
    50    28    47    1
    51    29    30    1
    52    29    48    1
    53    29    49    1
    54    30    50    1
    55    30    51    1
@<TRIPOS>SUBSTRUCTURE
     1 ZINC000479580180        1 TEMP              0 ****  ****    0 ROOT


##########                                Name:    ZINC000503413572
##########                DOCK_Rotatable_Bonds:                   7
##########                         Heavy_Atoms:                  26
##########                    Molecular_Weight:             355.375
##########                DOCK_Rotatable_Bonds:                   7
##########                       Formal_Charge:        -1.71363e-07
##########                     HBond_Acceptors:                   9
##########                        HBond_Donors:                   1
##########                         Heavy_Atoms:                  26
##########                          Grid_Score:          -31.771091
##########                     Grid_vdw_energy:          -30.137924
##########                      Grid_es_energy:           -1.633168
##########           Internal_energy_repulsive:            8.864892

@<TRIPOS>MOLECULE
ZINC000503413572
 44 47 1 0 0
SMALL
USER_CHARGES


@<TRIPOS>ATOM
      1 C1        -10.1156   -1.0196   55.0140 C.3     1  ZINC000503413572   -0.1200
      2 C2        -11.2570   -0.6304   54.1103 C.ar    1  ZINC000503413572   -0.0200
      3 C3        -12.5596   -0.8734   54.4989 C.ar    1  ZINC000503413572   -0.1400
      4 C4        -13.6090   -0.5154   53.6688 C.ar    1  ZINC000503413572    0.1300
      5 F5        -14.8829   -0.7535   54.0507 F       1  ZINC000503413572   -0.1300
      6 C6        -13.3542    0.0868   52.4482 C.ar    1  ZINC000503413572   -0.1400
      7 C7        -12.0525    0.3314   52.0562 C.ar    1  ZINC000503413572   -0.0700
      8 C8        -10.9998   -0.0220   52.8890 C.ar    1  ZINC000503413572    0.1000
      9 N9         -9.6772    0.2262   52.4929 N.pl3   1  ZINC000503413572   -0.3100
     10 C10        -8.9205    1.2913   52.8345 C.2     1  ZINC000503413572    0.1100
     11 C11        -7.7072    1.1242   52.2290 C.2     1  ZINC000503413572   -0.1000
     12 C12        -6.5618    2.0489   52.3232 C.2     1  ZINC000503413572    0.6100
     13 O13        -6.7122    3.1561   52.8028 O.2     1  ZINC000503413572   -0.5300
     14 N14        -5.3486    1.6665   51.8779 N.am    1  ZINC000503413572   -0.7200
     15 C15        -4.2106    2.5843   51.9730 C.3     1  ZINC000503413572    0.1100
     16 C16        -2.9981    1.9676   51.2727 C.3     1  ZINC000503413572    0.1000
     17 N17        -3.1689    2.0689   49.8212 N.pl3   1  ZINC000503413572   -0.4700
     18 C18        -4.1628    2.7101   49.1603 C.2     1  ZINC000503413572    0.1500
     19 N19        -3.9411    2.5575   47.8830 N.2     1  ZINC000503413572   -0.2900
     20 N20        -2.8731    1.8627   47.7089 N.2     1  ZINC000503413572   -0.2900
     21 C21        -2.3617    1.5453   48.8672 C.2     1  ZINC000503413572    0.2100
     22 C22        -1.1111    0.7375   49.1000 C.3     1  ZINC000503413572   -0.1000
     23 C23        -0.8090   -0.3960   48.1178 C.3     1  ZINC000503413572   -0.1500
     24 C24         0.0251    0.8863   48.0862 C.3     1  ZINC000503413572   -0.1600
     25 N25        -7.7336   -0.0253   51.5329 N.2     1  ZINC000503413572   -0.2000
     26 N26        -8.8840   -0.5868   51.6708 N.2     1  ZINC000503413572   -0.0400
     27 H27        -9.8204   -0.1609   55.6169 H       1  ZINC000503413572    0.0900
     28 H28       -10.4313   -1.8320   55.6687 H       1  ZINC000503413572    0.0800
     29 H29        -9.2696   -1.3476   54.4100 H       1  ZINC000503413572    0.0700
     30 H30       -12.7602   -1.3433   55.4503 H       1  ZINC000503413572    0.1500
     31 H31       -14.1737    0.3649   51.8021 H       1  ZINC000503413572    0.1500
     32 H32       -11.8541    0.8006   51.1040 H       1  ZINC000503413572    0.1500
     33 H33        -9.2174    2.1166   53.4647 H       1  ZINC000503413572    0.2100
     34 H34        -5.2288    0.7837   51.4942 H       1  ZINC000503413572    0.4100
     35 H35        -4.4651    3.5296   51.4938 H       1  ZINC000503413572    0.0800
     36 H36        -3.9732    2.7611   53.0221 H       1  ZINC000503413572    0.0800
     37 H37        -2.0959    2.5017   51.5706 H       1  ZINC000503413572    0.1100
     38 H38        -2.9096    0.9187   51.5558 H       1  ZINC000503413572    0.1100
     39 H39        -4.9862    3.2472   49.6073 H       1  ZINC000503413572    0.2200
     40 H40        -0.8372    0.5855   50.1441 H       1  ZINC000503413572    0.1200
     41 H41        -0.3364   -1.2940   48.5156 H       1  ZINC000503413572    0.1100
     42 H42        -1.5149   -0.5574   47.3031 H       1  ZINC000503413572    0.1100
     43 H43        -0.1321    1.5685   47.2506 H       1  ZINC000503413572    0.1000
     44 H44         1.0463    0.8319   48.4632 H       1  ZINC000503413572    0.1100
@<TRIPOS>BOND
     1     1     2    1
     2     1    27    1
     3     1    28    1
     4     1    29    1
     5     2     8   ar
     6     2     3   ar
     7     3     4   ar
     8     3    30    1
     9     4     5    1
    10     4     6   ar
    11     6     7   ar
    12     6    31    1
    13     7     8   ar
    14     7    32    1
    15     8     9    1
    16     9    26    1
    17     9    10    1
    18    10    11    2
    19    10    33    1
    20    11    12    1
    21    11    25    1
    22    12    13    2
    23    12    14   am
    24    14    15    1
    25    14    34    1
    26    15    16    1
    27    15    35    1
    28    15    36    1
    29    16    17    1
    30    16    37    1
    31    16    38    1
    32    17    21    1
    33    17    18    1
    34    18    19    2
    35    18    39    1
    36    19    20    1
    37    20    21    2
    38    21    22    1
    39    22    24    1
    40    22    23    1
    41    22    40    1
    42    23    24    1
    43    23    41    1
    44    23    42    1
    45    24    43    1
    46    24    44    1
    47    25    26    2
@<TRIPOS>SUBSTRUCTURE
     1 ZINC000503413572        1 TEMP              0 ****  ****    0 ROOT


##########                                Name:    ZINC000893400114
##########                DOCK_Rotatable_Bonds:                   6
##########                         Heavy_Atoms:                  27
##########                    Molecular_Weight:             381.472
##########                DOCK_Rotatable_Bonds:                   6
##########                       Formal_Charge:           0.0300001
##########                     HBond_Acceptors:                   8
##########                        HBond_Donors:                   1
##########                         Heavy_Atoms:                  27
##########                          Grid_Score:          -31.764345
##########                     Grid_vdw_energy:          -31.854563
##########                      Grid_es_energy:            0.090217
##########           Internal_energy_repulsive:           80.035515

@<TRIPOS>MOLECULE
ZINC000893400114
 58 61 1 0 0
SMALL
USER_CHARGES


@<TRIPOS>ATOM
      1 O1         -5.1715    2.3706   49.1787 O.2     1  ZINC000893400114   -0.5600
      2 C2         -5.1452    2.8995   50.2733 C.2     1  ZINC000893400114    0.7100
      3 N3         -6.2938    3.1195   50.9431 N.am    1  ZINC000893400114   -0.7300
      4 C4         -7.5745    2.7269   50.3499 C.3     1  ZINC000893400114    0.1400
      5 H5         -7.4700    2.5929   49.2733 H       1  ZINC000893400114    0.1200
      6 C6         -8.6611    3.7822   50.6609 C.3     1  ZINC000893400114   -0.1400
      7 C7         -9.3094    3.2001   51.9367 C.3     1  ZINC000893400114    0.1000
      8 N8         -9.0648    1.7544   51.8755 N.am    1  ZINC000893400114   -0.6200
      9 C9         -9.7888    0.7591   52.6703 C.3     1  ZINC000893400114    0.1600
     10 C10        -9.0279    0.4913   53.9724 C.3     1  ZINC000893400114   -0.1700
     11 C11        -9.8308   -0.4897   54.8309 C.3     1  ZINC000893400114    0.0700
     12 O12       -11.1293    0.0516   55.0820 O.3     1  ZINC000893400114   -0.3800
     13 C13       -11.9049    0.2785   53.9034 C.3     1  ZINC000893400114    0.0700
     14 C14       -11.1853    1.2903   53.0077 C.3     1  ZINC000893400114   -0.1700
     15 C15        -8.0897    1.4587   50.9939 C.2     1  ZINC000893400114    0.5100
     16 O16        -7.6857    0.3405   50.7540 O.2     1  ZINC000893400114   -0.4900
     17 N17        -3.9669    3.2607   50.8190 N.am    1  ZINC000893400114   -0.6300
     18 C18        -3.9095    3.8968   52.1447 C.3     1  ZINC000893400114    0.0800
     19 C19        -2.8829    3.1436   52.9983 C.3     1  ZINC000893400114    0.0500
     20 O20        -1.6488    3.0560   52.2822 O.3     1  ZINC000893400114   -0.3800
     21 C21        -1.7323    2.3191   51.0599 C.3     1  ZINC000893400114    0.0600
     22 C22        -2.6996    3.0251   50.1095 C.3     1  ZINC000893400114    0.1400
     23 H23        -2.2766    3.9801   49.7979 H       1  ZINC000893400114    0.0800
     24 C24        -2.9486    2.1467   48.8817 C.3     1  ZINC000893400114   -0.1200
     25 C25        -1.6083    1.7148   48.2832 C.3     1  ZINC000893400114    0.0700
     26 H26        -0.8471    2.4633   48.5029 H       1  ZINC000893400114    0.0800
     27 C27        -1.7480    1.5428   46.7554 C.3     1  ZINC000893400114   -0.1500
     28 C28        -0.8833    0.2814   46.4853 C.3     1  ZINC000893400114   -0.1600
     29 C29        -1.1357   -0.5312   47.7803 C.3     1  ZINC000893400114    0.0500
     30 O30        -1.2176    0.4495   48.8293 O.3     1  ZINC000893400114   -0.3800
     31 H31        -6.2725    3.5378   51.8181 H       1  ZINC000893400114    0.4000
     32 H32        -8.2136    4.7559   50.8603 H       1  ZINC000893400114    0.1000
     33 H33        -9.3860    3.8465   49.8495 H       1  ZINC000893400114    0.1000
     34 H34        -8.8415    3.6246   52.8249 H       1  ZINC000893400114    0.0700
     35 H35       -10.3806    3.4016   51.9410 H       1  ZINC000893400114    0.0800
     36 H36        -9.8783   -0.1665   52.1016 H       1  ZINC000893400114    0.0900
     37 H37        -8.0531    0.0609   53.7428 H       1  ZINC000893400114    0.0800
     38 H38        -8.8953    1.4267   54.5158 H       1  ZINC000893400114    0.0900
     39 H39        -9.9284   -1.4386   54.3035 H       1  ZINC000893400114    0.0500
     40 H40        -9.3149   -0.6510   55.7774 H       1  ZINC000893400114    0.1000
     41 H41       -12.0295   -0.6604   53.3640 H       1  ZINC000893400114    0.0500
     42 H42       -12.8830    0.6706   54.1818 H       1  ZINC000893400114    0.1000
     43 H43       -11.0962    2.2419   53.5317 H       1  ZINC000893400114    0.0900
     44 H44       -11.7533    1.4315   52.0883 H       1  ZINC000893400114    0.0700
     45 H45        -3.6059    4.9383   52.0392 H       1  ZINC000893400114    0.0800
     46 H46        -4.8895    3.8458   52.6191 H       1  ZINC000893400114    0.0800
     47 H47        -2.7238    3.6798   53.9338 H       1  ZINC000893400114    0.1100
     48 H48        -3.2523    2.1404   53.2111 H       1  ZINC000893400114    0.0500
     49 H49        -0.7454    2.2623   50.6009 H       1  ZINC000893400114    0.1300
     50 H50        -2.0975    1.3130   51.2656 H       1  ZINC000893400114    0.0500
     51 H51        -3.5166    1.2641   49.1755 H       1  ZINC000893400114    0.0800
     52 H52        -3.5129    2.7113   48.1394 H       1  ZINC000893400114    0.1100
     53 H53        -2.7875    1.3671   46.4783 H       1  ZINC000893400114    0.0800
     54 H54        -1.3461    2.4086   46.2292 H       1  ZINC000893400114    0.0800
     55 H55        -1.2388   -0.2581   45.6076 H       1  ZINC000893400114    0.0800
     56 H56         0.1704    0.5417   46.3841 H       1  ZINC000893400114    0.0800
     57 H57        -2.0723   -1.0834   47.7038 H       1  ZINC000893400114    0.0600
     58 H58        -0.3069   -1.2143   47.9661 H       1  ZINC000893400114    0.0800
@<TRIPOS>BOND
     1     1     2    2
     2     2     3   am
     3     2    17   am
     4     3     4    1
     5     3    31    1
     6     4     5    1
     7     4    15    1
     8     4     6    1
     9     6     7    1
    10     6    32    1
    11     6    33    1
    12     7     8    1
    13     7    34    1
    14     7    35    1
    15     8     9    1
    16     8    15   am
    17     9    14    1
    18     9    10    1
    19     9    36    1
    20    10    11    1
    21    10    37    1
    22    10    38    1
    23    11    12    1
    24    11    39    1
    25    11    40    1
    26    12    13    1
    27    13    14    1
    28    13    41    1
    29    13    42    1
    30    14    43    1
    31    14    44    1
    32    15    16    2
    33    17    22    1
    34    17    18    1
    35    18    19    1
    36    18    45    1
    37    18    46    1
    38    19    20    1
    39    19    47    1
    40    19    48    1
    41    20    21    1
    42    21    22    1
    43    21    49    1
    44    21    50    1
    45    22    23    1
    46    22    24    1
    47    24    25    1
    48    24    51    1
    49    24    52    1
    50    25    26    1
    51    25    30    1
    52    25    27    1
    53    27    28    1
    54    27    53    1
    55    27    54    1
    56    28    29    1
    57    28    55    1
    58    28    56    1
    59    29    30    1
    60    29    57    1
    61    29    58    1
@<TRIPOS>SUBSTRUCTURE
     1 ZINC000893400114        1 TEMP              0 ****  ****    0 ROOT


##########                                Name:    ZINC000507831344
##########                DOCK_Rotatable_Bonds:                   6
##########                         Heavy_Atoms:                  31
##########                    Molecular_Weight:              422.53
##########                DOCK_Rotatable_Bonds:                   6
##########                       Formal_Charge:          -0.0200002
##########                     HBond_Acceptors:                   8
##########                        HBond_Donors:                   2
##########                         Heavy_Atoms:                  31
##########                          Grid_Score:          -31.751774
##########                     Grid_vdw_energy:          -27.407413
##########                      Grid_es_energy:           -4.344361
##########           Internal_energy_repulsive:           26.597322

@<TRIPOS>MOLECULE
ZINC000507831344
 61 64 1 0 0
SMALL
USER_CHARGES


@<TRIPOS>ATOM
      1 C1        -11.2886    2.8894   52.4104 C.3     1  ZINC000507831344   -0.1000
      2 C2        -10.3979    2.4933   53.5597 C.ar    1  ZINC000507831344   -0.0800
      3 C3        -10.9124    2.3836   54.8383 C.ar    1  ZINC000507831344   -0.0800
      4 C4        -10.0518    2.0139   55.8709 C.ar    1  ZINC000507831344    0.0900
      5 N5        -10.5299    1.8898   57.1828 N.am    1  ZINC000507831344   -0.6700
      6 C6        -10.2350    0.7919   57.9066 C.2     1  ZINC000507831344    0.5100
      7 O7         -9.5558   -0.0890   57.4228 O.2     1  ZINC000507831344   -0.5100
      8 C8        -10.7490    0.6585   59.3170 C.3     1  ZINC000507831344   -0.1400
      9 C9        -10.2517    1.8382   60.1548 C.3     1  ZINC000507831344   -0.0500
     10 C10       -10.1640    1.4252   61.6015 C.2     1  ZINC000507831344   -0.2200
     11 C11        -9.0565    0.7900   62.0675 C.2     1  ZINC000507831344    0.2100
     12 C12        -7.9037    0.4910   61.1441 C.3     1  ZINC000507831344   -0.1400
     13 N13        -9.0011    0.4278   63.3769 N.pl3   1  ZINC000507831344   -0.3000
     14 N14        -8.0174   -0.2240   64.1304 N.am    1  ZINC000507831344   -0.5100
     15 C15        -8.4597   -0.3437   65.3968 C.2     1  ZINC000507831344    0.5500
     16 O16        -7.8528   -0.8636   66.3192 O.2     1  ZINC000507831344   -0.5400
     17 C17        -9.7290    0.2275   65.4746 C.2     1  ZINC000507831344   -0.3500
     18 C18       -10.0570    0.7060   64.2080 C.2     1  ZINC000507831344    0.3500
     19 N19       -11.1431    1.3322   63.7401 N.2     1  ZINC000507831344   -0.4800
     20 C20       -11.2197    1.6976   62.4785 C.2     1  ZINC000507831344    0.2500
     21 C21       -12.4528    2.4021   61.9741 C.3     1  ZINC000507831344   -0.1200
     22 C22        -8.7175    1.7700   55.5845 C.ar    1  ZINC000507831344    0.0800
     23 N23        -8.2601    1.8843   54.3520 N.ar    1  ZINC000507831344   -0.4900
     24 C24        -9.0491    2.2279   53.3465 C.ar    1  ZINC000507831344    0.2800
     25 N25        -8.5211    2.3353   52.0628 N.3     1  ZINC000507831344   -0.4800
     26 C26        -7.8673    3.6360   51.8699 C.3     1  ZINC000507831344    0.0600
     27 C27        -7.4287    3.7764   50.4104 C.3     1  ZINC000507831344   -0.1200
     28 C28        -6.4617    2.6414   50.0618 C.3     1  ZINC000507831344   -0.1200
     29 C29        -7.1505    1.2980   50.3175 C.3     1  ZINC000507831344   -0.1100
     30 C30        -7.5973    1.2295   51.7796 C.3     1  ZINC000507831344    0.0900
     31 H31        -6.7259    1.3086   52.4296 H       1  ZINC000507831344    0.0600
     32 C32        -8.3043   -0.1032   52.0347 C.3     1  ZINC000507831344   -0.1400
     33 H33       -11.6540    1.9935   51.9085 H       1  ZINC000507831344    0.0700
     34 H34       -12.1339    3.4650   52.7875 H       1  ZINC000507831344    0.0600
     35 H35       -10.7220    3.4962   51.7040 H       1  ZINC000507831344    0.0800
     36 H36       -11.9564    2.5800   55.0326 H       1  ZINC000507831344    0.1500
     37 H37       -11.0732    2.5942   57.5697 H       1  ZINC000507831344    0.4100
     38 H38       -11.8389    0.6535   59.3074 H       1  ZINC000507831344    0.1000
     39 H39       -10.3852   -0.2734   59.7497 H       1  ZINC000507831344    0.1000
     40 H40        -9.2658    2.1432   59.8037 H       1  ZINC000507831344    0.0900
     41 H41       -10.9465    2.6722   60.0564 H       1  ZINC000507831344    0.1000
     42 H42        -7.2035    1.3263   61.1549 H       1  ZINC000507831344    0.1000
     43 H43        -7.3955   -0.4136   61.4785 H       1  ZINC000507831344    0.0800
     44 H44        -8.2783    0.3439   60.1311 H       1  ZINC000507831344    0.1100
     45 H45        -7.1622   -0.5370   63.7966 H       1  ZINC000507831344    0.4400
     46 H46       -10.3471    0.2879   66.3581 H       1  ZINC000507831344    0.1700
     47 H47       -13.1644    2.5190   62.7915 H       1  ZINC000507831344    0.0900
     48 H48       -12.1781    3.3838   61.5883 H       1  ZINC000507831344    0.1000
     49 H49       -12.9076    1.8130   61.1778 H       1  ZINC000507831344    0.0900
     50 H50        -8.0447    1.4835   56.3792 H       1  ZINC000507831344    0.1600
     51 H51        -8.5669    4.4343   52.1172 H       1  ZINC000507831344    0.0700
     52 H52        -6.9948    3.7038   52.5195 H       1  ZINC000507831344    0.0500
     53 H53        -8.3024    3.7224   49.7610 H       1  ZINC000507831344    0.0700
     54 H54        -6.9296    4.7353   50.2711 H       1  ZINC000507831344    0.0700
     55 H55        -6.1805    2.7124   49.0112 H       1  ZINC000507831344    0.0700
     56 H56        -5.5704    2.7181   50.6844 H       1  ZINC000507831344    0.0600
     57 H57        -8.0199    1.2050   49.6665 H       1  ZINC000507831344    0.0700
     58 H58        -6.4528    0.4862   50.1117 H       1  ZINC000507831344    0.0700
     59 H59        -7.5944   -0.9208   51.9098 H       1  ZINC000507831344    0.0600
     60 H60        -8.6989   -0.1165   53.0507 H       1  ZINC000507831344    0.0500
     61 H61        -9.1234   -0.2216   51.3253 H       1  ZINC000507831344    0.0600
@<TRIPOS>BOND
     1     1     2    1
     2     1    33    1
     3     1    34    1
     4     1    35    1
     5     2    24   ar
     6     2     3   ar
     7     3     4   ar
     8     3    36    1
     9     4     5    1
    10     4    22   ar
    11     5     6   am
    12     5    37    1
    13     6     7    2
    14     6     8    1
    15     8     9    1
    16     8    38    1
    17     8    39    1
    18     9    10    1
    19     9    40    1
    20     9    41    1
    21    10    20    1
    22    10    11    2
    23    11    12    1
    24    11    13    1
    25    12    42    1
    26    12    43    1
    27    12    44    1
    28    13    18    1
    29    13    14    1
    30    14    15   am
    31    14    45    1
    32    15    16    2
    33    15    17    1
    34    17    18    2
    35    17    46    1
    36    18    19    1
    37    19    20    2
    38    20    21    1
    39    21    47    1
    40    21    48    1
    41    21    49    1
    42    22    23   ar
    43    22    50    1
    44    23    24   ar
    45    24    25    1
    46    25    30    1
    47    25    26    1
    48    26    27    1
    49    26    51    1
    50    26    52    1
    51    27    28    1
    52    27    53    1
    53    27    54    1
    54    28    29    1
    55    28    55    1
    56    28    56    1
    57    29    30    1
    58    29    57    1
    59    29    58    1
    60    30    31    1
    61    30    32    1
    62    32    59    1
    63    32    60    1
    64    32    61    1
@<TRIPOS>SUBSTRUCTURE
     1 ZINC000507831344        1 TEMP              0 ****  ****    0 ROOT


##########                                Name:    ZINC000970996691
##########                DOCK_Rotatable_Bonds:                   7
##########                         Heavy_Atoms:                  24
##########                    Molecular_Weight:             334.462
##########                DOCK_Rotatable_Bonds:                   7
##########                       Formal_Charge:          -0.0199999
##########                     HBond_Acceptors:                   6
##########                        HBond_Donors:                   0
##########                         Heavy_Atoms:                  24
##########                          Grid_Score:          -31.719381
##########                     Grid_vdw_energy:          -31.912022
##########                      Grid_es_energy:            0.192640
##########           Internal_energy_repulsive:           11.085872

@<TRIPOS>MOLECULE
ZINC000970996691
 54 56 1 0 0
SMALL
USER_CHARGES


@<TRIPOS>ATOM
      1 C1        -11.3134   -3.0077   57.4258 C.3     1  ZINC000970996691   -0.1500
      2 C2        -11.1981   -2.0413   56.2453 C.3     1  ZINC000970996691   -0.1200
      3 C3         -9.7315   -1.6543   56.0444 C.3     1  ZINC000970996691   -0.0300
      4 C4         -9.6026   -0.7967   54.8119 C.2     1  ZINC000970996691    0.1800
      5 N5         -8.6627    0.0847   54.5685 N.2     1  ZINC000970996691   -0.4700
      6 C6         -8.9536    0.6001   53.3608 C.2     1  ZINC000970996691    0.1800
      7 C7         -8.1689    1.6592   52.6304 C.3     1  ZINC000970996691    0.1500
      8 N8         -6.9935    1.0476   51.9963 N.3     1  ZINC000970996691   -0.5200
      9 C9         -7.3577    0.3936   50.7323 C.3     1  ZINC000970996691    0.0200
     10 C10        -5.9311    2.0408   51.7880 C.3     1  ZINC000970996691    0.0700
     11 H11        -6.3234    2.9326   51.2993 H       1  ZINC000970996691    0.0600
     12 C12        -5.2362    2.4009   53.1276 C.3     1  ZINC000970996691   -0.1300
     13 C13        -3.8277    2.8433   52.6783 C.3     1  ZINC000970996691    0.1000
     14 N14        -3.5826    2.2448   51.3580 N.am    1  ZINC000970996691   -0.6200
     15 C15        -2.4693    2.4078   50.6160 C.2     1  ZINC000970996691    0.5300
     16 O16        -1.5616    3.0986   51.0280 O.2     1  ZINC000970996691   -0.5300
     17 C17        -2.3526    1.7317   49.2742 C.3     1  ZINC000970996691   -0.1000
     18 C18        -2.6716    2.7379   48.1666 C.3     1  ZINC000970996691   -0.1100
     19 C19        -2.5531    2.0515   46.8043 C.3     1  ZINC000970996691   -0.1200
     20 C20        -1.1282    1.5256   46.6206 C.3     1  ZINC000970996691   -0.1200
     21 C21        -0.8090    0.5194   47.7282 C.3     1  ZINC000970996691   -0.1200
     22 C22        -0.9276    1.2058   49.0904 C.3     1  ZINC000970996691   -0.1000
     23 C23        -4.7562    1.4358   50.9798 C.3     1  ZINC000970996691    0.1200
     24 N24       -10.0356    0.0167   52.9391 N.2     1  ZINC000970996691   -0.3800
     25 O25       -10.4212   -0.7933   53.7555 O.3     1  ZINC000970996691    0.0800
     26 H26       -10.7261   -3.9029   57.2212 H       1  ZINC000970996691    0.0600
     27 H27       -10.9380   -2.5252   58.3283 H       1  ZINC000970996691    0.0600
     28 H28       -12.3581   -3.2834   57.5690 H       1  ZINC000970996691    0.0600
     29 H29       -11.5735   -2.5237   55.3428 H       1  ZINC000970996691    0.0700
     30 H30       -11.7853   -1.1461   56.4498 H       1  ZINC000970996691    0.0700
     31 H31        -9.3805   -1.0971   56.9130 H       1  ZINC000970996691    0.1100
     32 H32        -9.1310   -2.5559   55.9241 H       1  ZINC000970996691    0.1000
     33 H33        -8.7981    2.1153   51.8662 H       1  ZINC000970996691    0.0700
     34 H34        -7.8443    2.4229   53.3372 H       1  ZINC000970996691    0.1100
     35 H35        -7.7789    1.1316   50.0496 H       1  ZINC000970996691    0.0300
     36 H36        -6.4692   -0.0508   50.2839 H       1  ZINC000970996691    0.0800
     37 H37        -8.0954   -0.3853   50.9257 H       1  ZINC000970996691    0.0700
     38 H38        -5.7572    3.2192   53.6247 H       1  ZINC000970996691    0.0800
     39 H39        -5.1771    1.5282   53.7783 H       1  ZINC000970996691    0.0900
     40 H40        -3.7859    3.9301   52.6062 H       1  ZINC000970996691    0.0700
     41 H41        -3.0827    2.4880   53.3904 H       1  ZINC000970996691    0.0700
     42 H42        -3.0560    0.9006   49.2237 H       1  ZINC000970996691    0.0900
     43 H43        -3.6869    3.1126   48.2975 H       1  ZINC000970996691    0.0700
     44 H44        -1.9683    3.5690   48.2171 H       1  ZINC000970996691    0.0700
     45 H45        -3.2564    1.2204   46.7539 H       1  ZINC000970996691    0.0600
     46 H46        -2.7804    2.7684   46.0154 H       1  ZINC000970996691    0.0700
     47 H47        -1.0437    1.0366   45.6501 H       1  ZINC000970996691    0.0600
     48 H48        -0.4248    2.3567   46.6712 H       1  ZINC000970996691    0.0600
     49 H49        -1.5124   -0.3118   47.6776 H       1  ZINC000970996691    0.0600
     50 H50         0.2061    0.1447   47.5972 H       1  ZINC000970996691    0.0700
     51 H51        -0.2242    2.0369   49.1409 H       1  ZINC000970996691    0.0800
     52 H52        -0.7003    0.4889   49.8795 H       1  ZINC000970996691    0.0600
     53 H53        -4.6033    0.3928   51.2569 H       1  ZINC000970996691    0.0800
     54 H54        -4.9468    1.5210   49.9099 H       1  ZINC000970996691    0.0800
@<TRIPOS>BOND
     1     1     2    1
     2     1    26    1
     3     1    27    1
     4     1    28    1
     5     2     3    1
     6     2    29    1
     7     2    30    1
     8     3     4    1
     9     3    31    1
    10     3    32    1
    11     4    25    1
    12     4     5    2
    13     5     6    1
    14     6     7    1
    15     6    24    2
    16     7     8    1
    17     7    33    1
    18     7    34    1
    19     8     9    1
    20     8    10    1
    21     9    35    1
    22     9    36    1
    23     9    37    1
    24    10    11    1
    25    10    23    1
    26    10    12    1
    27    12    13    1
    28    12    38    1
    29    12    39    1
    30    13    14    1
    31    13    40    1
    32    13    41    1
    33    14    15   am
    34    14    23    1
    35    15    16    2
    36    15    17    1
    37    17    22    1
    38    17    18    1
    39    17    42    1
    40    18    19    1
    41    18    43    1
    42    18    44    1
    43    19    20    1
    44    19    45    1
    45    19    46    1
    46    20    21    1
    47    20    47    1
    48    20    48    1
    49    21    22    1
    50    21    49    1
    51    21    50    1
    52    22    51    1
    53    22    52    1
    54    23    53    1
    55    23    54    1
    56    24    25    1
@<TRIPOS>SUBSTRUCTURE
     1 ZINC000970996691        1 TEMP              0 ****  ****    0 ROOT


##########                                Name:    ZINC000446721380
##########                DOCK_Rotatable_Bonds:                   8
##########                         Heavy_Atoms:                  26
##########                    Molecular_Weight:             419.318
##########                DOCK_Rotatable_Bonds:                   8
##########                       Formal_Charge:           0.0199992
##########                     HBond_Acceptors:                   5
##########                        HBond_Donors:                   2
##########                         Heavy_Atoms:                  26
##########                          Grid_Score:          -31.686058
##########                     Grid_vdw_energy:          -29.813139
##########                      Grid_es_energy:           -1.872918
##########           Internal_energy_repulsive:            8.554308

@<TRIPOS>MOLECULE
ZINC000446721380
 49 51 1 0 0
SMALL
USER_CHARGES


@<TRIPOS>ATOM
      1 C1         -2.6057    3.2667   54.8706 C.3     1  ZINC000446721380   -0.1200
      2 C2         -4.0585    2.9833   55.1538 C.ar    1  ZINC000446721380   -0.0300
      3 C3         -4.5277    3.0151   56.4538 C.ar    1  ZINC000446721380   -0.1600
      4 C4         -5.8603    2.7555   56.7169 C.ar    1  ZINC000446721380   -0.0500
      5 C5         -6.7259    2.4637   55.6809 C.ar    1  ZINC000446721380   -0.1500
      6 C6         -8.1781    2.1814   55.9683 C.3     1  ZINC000446721380    0.1900
      7 N7         -8.2909    1.4309   57.2213 N.am    1  ZINC000446721380   -0.7300
      8 C8         -8.1432    0.0912   57.2200 C.2     1  ZINC000446721380    0.7100
      9 O9         -7.9147   -0.4942   56.1792 O.2     1  ZINC000446721380   -0.5700
     10 N10        -8.2486   -0.5994   58.3725 N.am    1  ZINC000446721380   -0.6900
     11 C11        -8.0951   -1.9909   58.3712 C.ar    1  ZINC000446721380    0.2000
     12 C12        -6.8312   -2.5513   58.4943 C.ar    1  ZINC000446721380   -0.1200
     13 C13        -6.6830   -3.9250   58.4931 C.ar    1  ZINC000446721380   -0.0800
     14 C14        -7.7916   -4.7416   58.3696 C.ar    1  ZINC000446721380   -0.1300
     15 C15        -9.0526   -4.1870   58.2464 C.ar    1  ZINC000446721380   -0.0700
     16 C16        -9.2084   -2.8141   58.2525 C.ar    1  ZINC000446721380   -0.1300
     17 Br17      -10.9327   -2.0563   58.0847 Br      1  ZINC000446721380   -0.0500
     18 C18        -6.2574    2.4313   54.3752 C.ar    1  ZINC000446721380    0.1500
     19 O19        -7.1072    2.1449   53.3541 O.3     1  ZINC000446721380   -0.3100
     20 C20        -6.9175    2.8607   52.1320 C.3     1  ZINC000446721380    0.0700
     21 C21        -8.2018    2.8027   51.3023 C.3     1  ZINC000446721380   -0.1200
     22 H22        -8.5950    1.7863   51.2803 H       1  ZINC000446721380    0.1000
     23 C23        -7.9415    3.3144   49.8646 C.3     1  ZINC000446721380   -0.1500
     24 C24        -9.2180    4.1463   49.5801 C.3     1  ZINC000446721380    0.0500
     25 O25        -9.5073    4.7650   50.8522 O.3     1  ZINC000446721380   -0.3800
     26 C26        -9.2540    3.7759   51.8684 C.3     1  ZINC000446721380    0.0500
     27 C27        -4.9215    2.6974   54.1134 C.ar    1  ZINC000446721380   -0.2100
     28 H28        -2.4695    4.3354   54.7050 H       1  ZINC000446721380    0.0800
     29 H29        -2.0014    2.9508   55.7210 H       1  ZINC000446721380    0.0700
     30 H30        -2.2954    2.7187   53.9809 H       1  ZINC000446721380    0.0700
     31 H31        -3.8524    3.2427   57.2653 H       1  ZINC000446721380    0.1300
     32 H32        -6.2243    2.7807   57.7333 H       1  ZINC000446721380    0.1300
     33 H33        -8.7202    3.1228   56.0585 H       1  ZINC000446721380    0.0800
     34 H34        -8.6023    1.5945   55.1537 H       1  ZINC000446721380    0.0800
     35 H35        -8.4719    1.8981   58.0519 H       1  ZINC000446721380    0.4000
     36 H36        -8.4308   -0.1324   59.2030 H       1  ZINC000446721380    0.4100
     37 H37        -5.9645   -1.9143   58.5904 H       1  ZINC000446721380    0.1500
     38 H38        -5.6996   -4.3614   58.5884 H       1  ZINC000446721380    0.1300
     39 H39        -7.6728   -5.8151   58.3689 H       1  ZINC000446721380    0.1300
     40 H40        -9.9166   -4.8276   58.1493 H       1  ZINC000446721380    0.1400
     41 H41        -6.6748    3.9000   52.3537 H       1  ZINC000446721380    0.0700
     42 H42        -6.1006    2.4089   51.5693 H       1  ZINC000446721380    0.0700
     43 H43        -7.0518    3.9432   49.8305 H       1  ZINC000446721380    0.0800
     44 H44        -7.8554    2.4828   49.1653 H       1  ZINC000446721380    0.0900
     45 H45        -9.0215    4.9034   48.8210 H       1  ZINC000446721380    0.1000
     46 H46       -10.0385    3.4976   49.2733 H       1  ZINC000446721380    0.0600
     47 H47       -10.1736    3.2385   52.1000 H       1  ZINC000446721380    0.0600
     48 H48        -8.8677    4.2578   52.7665 H       1  ZINC000446721380    0.0900
     49 H49        -4.5545    2.6728   53.0980 H       1  ZINC000446721380    0.1300
@<TRIPOS>BOND
     1     1     2    1
     2     1    28    1
     3     1    29    1
     4     1    30    1
     5     2    27   ar
     6     2     3   ar
     7     3     4   ar
     8     3    31    1
     9     4     5   ar
    10     4    32    1
    11     5     6    1
    12     5    18   ar
    13     6     7    1
    14     6    33    1
    15     6    34    1
    16     7     8   am
    17     7    35    1
    18     8     9    2
    19     8    10   am
    20    10    11    1
    21    10    36    1
    22    11    16   ar
    23    11    12   ar
    24    12    13   ar
    25    12    37    1
    26    13    14   ar
    27    13    38    1
    28    14    15   ar
    29    14    39    1
    30    15    16   ar
    31    15    40    1
    32    16    17    1
    33    18    19    1
    34    18    27   ar
    35    19    20    1
    36    20    21    1
    37    20    41    1
    38    20    42    1
    39    21    22    1
    40    21    26    1
    41    21    23    1
    42    23    24    1
    43    23    43    1
    44    23    44    1
    45    24    25    1
    46    24    45    1
    47    24    46    1
    48    25    26    1
    49    26    47    1
    50    26    48    1
    51    27    49    1
@<TRIPOS>SUBSTRUCTURE
     1 ZINC000446721380        1 TEMP              0 ****  ****    0 ROOT


##########                                Name:    ZINC001326371752
##########                DOCK_Rotatable_Bonds:                   5
##########                         Heavy_Atoms:                  25
##########                    Molecular_Weight:             360.397
##########                DOCK_Rotatable_Bonds:                   5
##########                       Formal_Charge:           0.0199999
##########                     HBond_Acceptors:                  10
##########                        HBond_Donors:                   0
##########                         Heavy_Atoms:                  25
##########                          Grid_Score:          -31.684980
##########                     Grid_vdw_energy:          -30.821358
##########                      Grid_es_energy:           -0.863622
##########           Internal_energy_repulsive:            8.711161

@<TRIPOS>MOLECULE
ZINC001326371752
 41 44 1 0 0
SMALL
USER_CHARGES


@<TRIPOS>ATOM
      1 C1        -10.3609    4.0369   49.1682 C.3     1  ZINC001326371752    0.0300
      2 O2         -9.5064    3.7022   50.2637 O.3     1  ZINC001326371752   -0.3800
      3 C3         -8.1408    3.4996   49.8948 C.3     1  ZINC001326371752    0.0500
      4 C4         -7.3369    3.0785   51.1265 C.3     1  ZINC001326371752    0.1200
      5 N5         -7.8283    1.7867   51.6123 N.pl3   1  ZINC001326371752   -0.2800
      6 N6         -7.4963    0.6272   51.1522 N.2     1  ZINC001326371752   -0.0800
      7 N7         -8.1110   -0.3037   51.8007 N.2     1  ZINC001326371752   -0.2500
      8 C8         -8.8797    0.2610   52.7248 C.2     1  ZINC001326371752   -0.0400
      9 C9         -8.7002    1.6010   52.6194 C.2     1  ZINC001326371752    0.0000
     10 C10        -9.3772    2.6269   53.4878 C.3     1  ZINC001326371752   -0.0600
     11 C11       -10.5903    1.9763   54.1658 C.3     1  ZINC001326371752    0.1200
     12 N12       -10.2036    0.6572   54.6875 N.am    1  ZINC001326371752   -0.6100
     13 C13       -10.2176    0.4079   56.0119 C.2     1  ZINC001326371752    0.6100
     14 O14       -10.5531    1.2801   56.7916 O.2     1  ZINC001326371752   -0.5100
     15 C15        -9.8283   -0.9149   56.5139 C.2     1  ZINC001326371752   -0.3400
     16 C16       -10.7049   -2.0015   56.4136 C.2     1  ZINC001326371752    0.2400
     17 N17       -10.3215   -3.1765   56.8756 N.2     1  ZINC001326371752   -0.5100
     18 C18        -9.1308   -3.3568   57.4316 C.2     1  ZINC001326371752    0.2900
     19 S19        -8.4083   -4.7707   58.0992 S.3     1  ZINC001326371752    0.2500
     20 C20        -6.8941   -3.9685   58.5449 C.2     1  ZINC001326371752   -0.2100
     21 C21        -7.0376   -2.7102   58.1646 C.2     1  ZINC001326371752    0.0500
     22 N22        -8.2227   -2.3551   57.5668 N.am    1  ZINC001326371752   -0.4600
     23 C23        -8.5604   -1.1164   57.1017 C.2     1  ZINC001326371752    0.5500
     24 O24        -7.7744   -0.1899   57.1974 O.2     1  ZINC001326371752   -0.5000
     25 C25        -9.7969   -0.3875   53.7305 C.3     1  ZINC001326371752    0.2000
     26 H26       -11.3795    4.1743   49.5309 H       1  ZINC001326371752    0.0900
     27 H27       -10.0126    4.9599   48.7046 H       1  ZINC001326371752    0.0500
     28 H28       -10.3422    3.2319   48.4337 H       1  ZINC001326371752    0.0500
     29 H29        -8.0811    2.7179   49.1373 H       1  ZINC001326371752    0.0600
     30 H30        -7.7315    4.4266   49.4932 H       1  ZINC001326371752    0.0600
     31 H31        -6.2837    2.9897   50.8601 H       1  ZINC001326371752    0.1200
     32 H32        -7.4517    3.8285   51.9091 H       1  ZINC001326371752    0.1200
     33 H33        -8.6799    2.9804   54.2473 H       1  ZINC001326371752    0.0900
     34 H34        -9.7076    3.4647   52.8737 H       1  ZINC001326371752    0.1000
     35 H35       -10.9302    2.6073   54.9872 H       1  ZINC001326371752    0.1100
     36 H36       -11.3942    1.8591   53.4391 H       1  ZINC001326371752    0.0800
     37 H37       -11.6799   -1.8800   55.9654 H       1  ZINC001326371752    0.1900
     38 H38        -6.0353   -4.4127   59.0261 H       1  ZINC001326371752    0.2200
     39 H39        -6.2507   -1.9867   58.3186 H       1  ZINC001326371752    0.2000
     40 H40       -10.6742   -0.7867   53.2216 H       1  ZINC001326371752    0.1000
     41 H41        -9.2741   -1.1877   54.2543 H       1  ZINC001326371752    0.1000
@<TRIPOS>BOND
     1     1     2    1
     2     1    26    1
     3     1    27    1
     4     1    28    1
     5     2     3    1
     6     3     4    1
     7     3    29    1
     8     3    30    1
     9     4     5    1
    10     4    31    1
    11     4    32    1
    12     5     9    1
    13     5     6    1
    14     6     7    2
    15     7     8    1
    16     8    25    1
    17     8     9    2
    18     9    10    1
    19    10    11    1
    20    10    33    1
    21    10    34    1
    22    11    12    1
    23    11    35    1
    24    11    36    1
    25    12    13   am
    26    12    25    1
    27    13    14    2
    28    13    15    1
    29    15    23    1
    30    15    16    2
    31    16    17    1
    32    16    37    1
    33    17    18    2
    34    18    22    1
    35    18    19    1
    36    19    20    1
    37    20    21    2
    38    20    38    1
    39    21    22    1
    40    21    39    1
    41    22    23   am
    42    23    24    2
    43    25    40    1
    44    25    41    1
@<TRIPOS>SUBSTRUCTURE
     1 ZINC001326371752        1 TEMP              0 ****  ****    0 ROOT


##########                                Name:    ZINC001105194920
##########                DOCK_Rotatable_Bonds:                   8
##########                         Heavy_Atoms:                  25
##########                    Molecular_Weight:             346.392
##########                DOCK_Rotatable_Bonds:                   8
##########                       Formal_Charge:          -0.0100007
##########                     HBond_Acceptors:                  10
##########                        HBond_Donors:                   3
##########                         Heavy_Atoms:                  25
##########                          Grid_Score:          -31.680029
##########                     Grid_vdw_energy:          -30.230789
##########                      Grid_es_energy:           -1.449240
##########           Internal_energy_repulsive:            9.825056

@<TRIPOS>MOLECULE
ZINC001105194920
 47 49 1 0 0
SMALL
USER_CHARGES


@<TRIPOS>ATOM
      1 C1        -15.7482   -2.0226   55.8421 C.3     1  ZINC001105194920    0.0300
      2 O2        -15.5065   -2.3293   57.2167 O.3     1  ZINC001105194920   -0.3900
      3 C3        -14.3683   -1.6652   57.7691 C.3     1  ZINC001105194920    0.0700
      4 C4        -14.2043   -2.0688   59.2358 C.3     1  ZINC001105194920    0.0900
      5 H5        -15.0873   -1.7637   59.7974 H       1  ZINC001105194920    0.0900
      6 C6        -14.0383   -3.5868   59.3315 C.3     1  ZINC001105194920   -0.1800
      7 N7        -13.0164   -1.4099   59.7952 N.3     1  ZINC001105194920   -0.6800
      8 C8        -13.2427    0.0322   59.9598 C.3     1  ZINC001105194920    0.1400
      9 C9        -11.9955    0.6770   60.5074 C.2     1  ZINC001105194920   -0.0200
     10 C10       -10.7316    0.2011   60.4178 C.2     1  ZINC001105194920   -0.0200
     11 N11        -9.9435    1.1037   61.0464 N.pl3   1  ZINC001105194920   -0.2800
     12 C12        -8.4898    1.0122   61.2030 C.3     1  ZINC001105194920    0.1000
     13 C13        -7.9254   -0.3956   60.9396 C.3     1  ZINC001105194920    0.1100
     14 N14        -7.7702    0.0382   59.5376 N.am    1  ZINC001105194920   -0.6300
     15 C15        -7.7127   -0.6003   58.3520 C.2     1  ZINC001105194920    0.6200
     16 O16        -7.5772    0.0359   57.3250 O.2     1  ZINC001105194920   -0.5400
     17 C17        -7.8146   -2.0732   58.3006 C.ar    1  ZINC001105194920   -0.0600
     18 N18        -6.7789   -2.8275   58.6565 N.ar    1  ZINC001105194920   -0.3700
     19 C19        -6.8731   -4.1409   58.6094 C.ar    1  ZINC001105194920   -0.0200
     20 C20        -8.0497   -4.7447   58.1895 C.ar    1  ZINC001105194920    0.1500
     21 N21        -9.0864   -4.0087   57.8326 N.ar    1  ZINC001105194920   -0.5100
     22 C22        -9.0079   -2.6839   57.8810 C.ar    1  ZINC001105194920    0.4200
     23 N23       -10.0913   -1.9095   57.5086 N.pl3   1  ZINC001105194920   -0.8100
     24 C24        -7.7031    1.4522   59.9550 C.3     1  ZINC001105194920    0.1100
     25 N25       -10.6905    2.0568   61.4827 N.2     1  ZINC001105194920   -0.0800
     26 N26       -11.9191    1.8351   61.1725 N.2     1  ZINC001105194920   -0.2600
     27 H27       -14.8838   -2.3169   55.2468 H       1  ZINC001105194920    0.0400
     28 H28       -16.6284   -2.5656   55.4979 H       1  ZINC001105194920    0.0800
     29 H29       -15.9166   -0.9512   55.7332 H       1  ZINC001105194920    0.0400
     30 H30       -13.4757   -1.9499   57.2120 H       1  ZINC001105194920    0.0600
     31 H31       -14.5093   -0.5864   57.7027 H       1  ZINC001105194920    0.0500
     32 H32       -13.1553   -3.8917   58.7699 H       1  ZINC001105194920    0.0700
     33 H33       -13.9215   -3.8743   60.3764 H       1  ZINC001105194920    0.0500
     34 H34       -14.9197   -4.0755   58.9165 H       1  ZINC001105194920    0.0600
     35 H35       -12.7447   -1.8355   60.6688 H       1  ZINC001105194920    0.3500
     36 H36       -13.4863    0.4743   58.9938 H       1  ZINC001105194920    0.0900
     37 H37       -14.0690    0.1935   60.6521 H       1  ZINC001105194920    0.0500
     38 H38       -10.4158   -0.7151   59.9411 H       1  ZINC001105194920    0.1800
     39 H39        -8.1328    1.4638   62.1286 H       1  ZINC001105194920    0.1500
     40 H40        -6.9804   -0.5919   61.4460 H       1  ZINC001105194920    0.1200
     41 H41        -8.6554   -1.1939   61.0742 H       1  ZINC001105194920    0.1000
     42 H42        -6.0300   -4.7506   58.8987 H       1  ZINC001105194920    0.1800
     43 H43        -8.1179   -5.8220   58.1541 H       1  ZINC001105194920    0.1800
     44 H44       -10.9355   -2.3318   57.2855 H       1  ZINC001105194920    0.4000
     45 H45       -10.0071   -0.9439   57.4706 H       1  ZINC001105194920    0.4300
     46 H46        -8.2556    2.1293   59.3036 H       1  ZINC001105194920    0.1100
     47 H47        -6.6927    1.7987   60.1721 H       1  ZINC001105194920    0.1200
@<TRIPOS>BOND
     1     1     2    1
     2     1    27    1
     3     1    28    1
     4     1    29    1
     5     2     3    1
     6     3     4    1
     7     3    30    1
     8     3    31    1
     9     4     5    1
    10     4     6    1
    11     4     7    1
    12     6    32    1
    13     6    33    1
    14     6    34    1
    15     7     8    1
    16     7    35    1
    17     8     9    1
    18     8    36    1
    19     8    37    1
    20     9    26    1
    21     9    10    2
    22    10    11    1
    23    10    38    1
    24    11    12    1
    25    11    25    1
    26    12    24    1
    27    12    13    1
    28    12    39    1
    29    13    14    1
    30    13    40    1
    31    13    41    1
    32    14    15   am
    33    14    24    1
    34    15    16    2
    35    15    17    1
    36    17    22   ar
    37    17    18   ar
    38    18    19   ar
    39    19    20   ar
    40    19    42    1
    41    20    21   ar
    42    20    43    1
    43    21    22   ar
    44    22    23    1
    45    23    44    1
    46    23    45    1
    47    24    46    1
    48    24    47    1
    49    25    26    2
@<TRIPOS>SUBSTRUCTURE
     1 ZINC001105194920        1 TEMP              0 ****  ****    0 ROOT


##########                                Name:    ZINC000437192871
##########                DOCK_Rotatable_Bonds:                   9
##########                         Heavy_Atoms:                  28
##########                    Molecular_Weight:             423.298
##########                DOCK_Rotatable_Bonds:                   9
##########                       Formal_Charge:         -8.9407e-08
##########                     HBond_Acceptors:                   9
##########                        HBond_Donors:                   1
##########                         Heavy_Atoms:                  28
##########                          Grid_Score:          -31.668007
##########                     Grid_vdw_energy:          -30.965586
##########                      Grid_es_energy:           -0.702422
##########           Internal_energy_repulsive:           16.557367

@<TRIPOS>MOLECULE
ZINC000437192871
 48 50 1 0 0
SMALL
USER_CHARGES


@<TRIPOS>ATOM
      1 C1         -5.7631    2.3308   57.2287 C.3     1  ZINC000437192871   -0.1700
      2 C2         -6.8879    2.0732   56.2238 C.3     1  ZINC000437192871    0.1300
      3 N3         -7.6524    0.8941   56.6383 N.pl3   1  ZINC000437192871   -0.3600
      4 C4         -8.3320    0.0615   55.8223 C.2     1  ZINC000437192871    0.0700
      5 C5         -8.8992   -0.8971   56.5906 C.2     1  ZINC000437192871   -0.2700
      6 C6         -9.7511   -2.0387   56.0988 C.3     1  ZINC000437192871    0.1900
      7 N7        -10.6121   -2.5095   57.1867 N.am    1  ZINC000437192871   -0.6000
      8 C8        -10.3320   -3.7901   57.8407 C.3     1  ZINC000437192871    0.1100
      9 C9         -8.8334   -4.0877   57.7585 C.3     1  ZINC000437192871    0.0600
     10 O10        -8.5130   -5.1665   58.6390 O.3     1  ZINC000437192871   -0.5600
     11 C11       -11.6618   -1.7643   57.5858 C.2     1  ZINC000437192871    0.6000
     12 O12       -11.8942   -0.7010   57.0430 O.2     1  ZINC000437192871   -0.5000
     13 C13       -12.5274   -2.2375   58.6793 C.2     1  ZINC000437192871   -0.2200
     14 C14       -13.4622   -3.2415   58.6573 C.2     1  ZINC000437192871    0.0100
     15 C15       -13.8247   -4.1095   57.4799 C.3     1  ZINC000437192871   -0.0800
     16 O16       -13.9875   -3.2994   59.8833 O.3     1  ZINC000437192871    0.1100
     17 N17       -13.5183   -2.4892   60.6442 N.2     1  ZINC000437192871   -0.3200
     18 C18       -12.5990   -1.7525   60.0737 C.2     1  ZINC000437192871    0.0800
     19 C19       -11.8071   -0.6611   60.6905 C.ar    1  ZINC000437192871   -0.0200
     20 C20       -10.5129   -0.9072   61.1451 C.ar    1  ZINC000437192871   -0.0700
     21 C21        -9.7797    0.1119   61.7179 C.ar    1  ZINC000437192871   -0.1000
     22 C22       -10.3272    1.3776   61.8417 C.ar    1  ZINC000437192871   -0.0100
     23 Cl23       -9.3985    2.6548   62.5629 Cl      1  ZINC000437192871   -0.0500
     24 C24       -11.6122    1.6284   61.3920 C.ar    1  ZINC000437192871   -0.1100
     25 C25       -12.3528    0.6172   60.8125 C.ar    1  ZINC000437192871    0.0000
     26 Cl26      -13.9640    0.9326   60.2483 Cl      1  ZINC000437192871   -0.0300
     27 C27        -8.5545   -0.6414   57.9219 C.2     1  ZINC000437192871    0.0600
     28 N28        -7.8022    0.4287   57.9510 N.2     1  ZINC000437192871   -0.2900
     29 H29        -5.1944    3.2080   56.9203 H       1  ZINC000437192871    0.0800
     30 H30        -6.1908    2.5037   58.2163 H       1  ZINC000437192871    0.0600
     31 H31        -5.1031    1.4641   57.2652 H       1  ZINC000437192871    0.0700
     32 H32        -7.5480    2.9398   56.1873 H       1  ZINC000437192871    0.1000
     33 H33        -6.4603    1.9002   55.2363 H       1  ZINC000437192871    0.0900
     34 H34        -8.4094    0.1453   54.7483 H       1  ZINC000437192871    0.1600
     35 H35       -10.3689   -1.6992   55.2675 H       1  ZINC000437192871    0.0900
     36 H36        -9.1089   -2.8538   55.7651 H       1  ZINC000437192871    0.0800
     37 H37       -10.6352   -3.7380   58.8864 H       1  ZINC000437192871    0.1000
     38 H38       -10.8879   -4.5829   57.3403 H       1  ZINC000437192871    0.1000
     39 H39        -8.5733   -4.3633   56.7365 H       1  ZINC000437192871    0.0600
     40 H40        -8.2704   -3.2010   58.0502 H       1  ZINC000437192871    0.0500
     41 H41        -8.7756   -5.0160   59.5574 H       1  ZINC000437192871    0.3800
     42 H42       -13.2553   -5.0379   57.5240 H       1  ZINC000437192871    0.1000
     43 H43       -14.8907   -4.3351   57.5093 H       1  ZINC000437192871    0.0900
     44 H44       -13.5901   -3.5832   56.5546 H       1  ZINC000437192871    0.0900
     45 H45       -10.0845   -1.8939   61.0496 H       1  ZINC000437192871    0.1600
     46 H46        -8.7768   -0.0783   62.0707 H       1  ZINC000437192871    0.1500
     47 H47       -12.0347    2.6174   61.4909 H       1  ZINC000437192871    0.1500
     48 H48        -8.8536   -1.2287   58.7774 H       1  ZINC000437192871    0.1800
@<TRIPOS>BOND
     1     1     2    1
     2     1    29    1
     3     1    30    1
     4     1    31    1
     5     2     3    1
     6     2    32    1
     7     2    33    1
     8     3    28    1
     9     3     4    1
    10     4     5    2
    11     4    34    1
    12     5     6    1
    13     5    27    1
    14     6     7    1
    15     6    35    1
    16     6    36    1
    17     7     8    1
    18     7    11   am
    19     8     9    1
    20     8    37    1
    21     8    38    1
    22     9    10    1
    23     9    39    1
    24     9    40    1
    25    10    41    1
    26    11    12    2
    27    11    13    1
    28    13    18    1
    29    13    14    2
    30    14    15    1
    31    14    16    1
    32    15    42    1
    33    15    43    1
    34    15    44    1
    35    16    17    1
    36    17    18    2
    37    18    19    1
    38    19    25   ar
    39    19    20   ar
    40    20    21   ar
    41    20    45    1
    42    21    22   ar
    43    21    46    1
    44    22    23    1
    45    22    24   ar
    46    24    25   ar
    47    24    47    1
    48    25    26    1
    49    27    28    2
    50    27    48    1
@<TRIPOS>SUBSTRUCTURE
     1 ZINC000437192871        1 TEMP              0 ****  ****    0 ROOT


##########                                Name:    ZINC001289445798
##########                DOCK_Rotatable_Bonds:                  10
##########                         Heavy_Atoms:                  25
##########                    Molecular_Weight:             352.434
##########                DOCK_Rotatable_Bonds:                  10
##########                       Formal_Charge:          0.00999932
##########                     HBond_Acceptors:                   8
##########                        HBond_Donors:                   2
##########                         Heavy_Atoms:                  25
##########                          Grid_Score:          -31.656921
##########                     Grid_vdw_energy:          -31.147789
##########                      Grid_es_energy:           -0.509132
##########           Internal_energy_repulsive:           21.617443

@<TRIPOS>MOLECULE
ZINC001289445798
 53 54 1 0 0
SMALL
USER_CHARGES


@<TRIPOS>ATOM
      1 C1         -8.5050    0.1670   56.3379 C.3     1  ZINC001289445798   -0.1500
      2 C2         -9.4673    0.6655   55.2580 C.3     1  ZINC001289445798    0.0600
      3 O3         -9.7540   -0.3981   54.3477 O.3     1  ZINC001289445798   -0.3700
      4 C4        -10.6743   -0.0453   53.3130 C.3     1  ZINC001289445798    0.1100
      5 H5        -10.8709   -0.9170   52.6889 H       1  ZINC001289445798    0.0700
      6 C6        -10.0743    1.0709   52.4557 C.3     1  ZINC001289445798   -0.1400
      7 C7         -8.7204    0.6436   51.9503 C.2     1  ZINC001289445798    0.5400
      8 O8         -8.3879   -0.5208   52.0175 O.2     1  ZINC001289445798   -0.5200
      9 N9         -7.8791    1.5554   51.4239 N.am    1  ZINC001289445798   -0.6200
     10 C10        -6.5383    1.2761   50.8891 C.3     1  ZINC001289445798    0.1000
     11 C11        -5.9635    2.6119   50.3730 C.3     1  ZINC001289445798    0.1400
     12 H12        -5.3263    3.0745   51.1267 H       1  ZINC001289445798    0.1200
     13 N13        -5.2239    2.4101   49.1246 N.am    1  ZINC001289445798   -0.7200
     14 C14        -3.8983    2.1686   49.1583 C.2     1  ZINC001289445798    0.6000
     15 O15        -3.3159    2.1196   50.2249 O.2     1  ZINC001289445798   -0.5100
     16 C16        -3.1556    1.9640   47.9043 C.2     1  ZINC001289445798   -0.0500
     17 C17        -1.9601    1.2842   47.7483 C.2     1  ZINC001289445798   -0.1400
     18 C18        -1.6638    1.3649   46.3858 C.2     1  ZINC001289445798    0.0000
     19 N19        -2.6216    2.0422   45.8061 N.2     1  ZINC001289445798   -0.2700
     20 N20        -3.5109    2.4020   46.6602 N.pl3   1  ZINC001289445798   -0.3800
     21 C21        -7.2353    3.4668   50.1299 C.3     1  ZINC001289445798    0.0700
     22 H22        -7.6810    3.2377   49.1619 H       1  ZINC001289445798    0.0900
     23 O23        -6.9436    4.8615   50.2390 O.3     1  ZINC001289445798   -0.3700
     24 C24        -8.0508    5.7123   49.9353 C.3     1  ZINC001289445798    0.0300
     25 C25        -8.1534    2.9970   51.2829 C.3     1  ZINC001289445798    0.0800
     26 C26       -11.9836    0.4398   53.9385 C.3     1  ZINC001289445798   -0.1100
     27 C27       -13.0529    0.5644   52.8512 C.3     1  ZINC001289445798   -0.1500
     28 C28       -12.4464   -0.5642   54.9962 C.3     1  ZINC001289445798   -0.1500
     29 H29        -7.5797   -0.1716   55.8718 H       1  ZINC001289445798    0.0600
     30 H30        -8.2863    0.9783   57.0323 H       1  ZINC001289445798    0.0700
     31 H31        -8.9633   -0.6607   56.8790 H       1  ZINC001289445798    0.0600
     32 H32       -10.3926    1.0042   55.7240 H       1  ZINC001289445798    0.0500
     33 H33        -9.0089    1.4933   54.7169 H       1  ZINC001289445798    0.0500
     34 H34       -10.7312    1.2719   51.6093 H       1  ZINC001289445798    0.1100
     35 H35        -9.9694    1.9742   53.0567 H       1  ZINC001289445798    0.1000
     36 H36        -5.9002    0.8780   51.6780 H       1  ZINC001289445798    0.0800
     37 H37        -6.6078    0.5610   50.0694 H       1  ZINC001289445798    0.0800
     38 H38        -5.6880    2.4504   48.2738 H       1  ZINC001289445798    0.4000
     39 H39        -1.3798    0.7952   48.5169 H       1  ZINC001289445798    0.1700
     40 H40        -0.7975    0.9435   45.8976 H       1  ZINC001289445798    0.1900
     41 H41        -4.3095    2.9127   46.4543 H       1  ZINC001289445798    0.4400
     42 H42        -7.7482    6.7542   50.0412 H       1  ZINC001289445798    0.0900
     43 H43        -8.3779    5.5314   48.9114 H       1  ZINC001289445798    0.0400
     44 H44        -8.8707    5.5007   50.6216 H       1  ZINC001289445798    0.0500
     45 H45        -9.1996    3.1644   51.0269 H       1  ZINC001289445798    0.0900
     46 H46        -7.8998    3.5181   52.2061 H       1  ZINC001289445798    0.0900
     47 H47       -11.8250    1.4120   54.4052 H       1  ZINC001289445798    0.0800
     48 H48       -13.2115   -0.4078   52.3845 H       1  ZINC001289445798    0.0600
     49 H49       -13.9857    0.9099   53.2969 H       1  ZINC001289445798    0.0600
     50 H50       -12.7233    1.2797   52.0977 H       1  ZINC001289445798    0.0600
     51 H51       -11.7316   -0.5805   55.8189 H       1  ZINC001289445798    0.0600
     52 H52       -13.4263   -0.2704   55.3721 H       1  ZINC001289445798    0.0600
     53 H53       -12.5107   -1.5571   54.5512 H       1  ZINC001289445798    0.0500
@<TRIPOS>BOND
     1     1     2    1
     2     1    29    1
     3     1    30    1
     4     1    31    1
     5     2     3    1
     6     2    32    1
     7     2    33    1
     8     3     4    1
     9     4     5    1
    10     4     6    1
    11     4    26    1
    12     6     7    1
    13     6    34    1
    14     6    35    1
    15     7     8    2
    16     7     9   am
    17     9    25    1
    18     9    10    1
    19    10    11    1
    20    10    36    1
    21    10    37    1
    22    11    12    1
    23    11    13    1
    24    11    21    1
    25    13    14   am
    26    13    38    1
    27    14    15    2
    28    14    16    1
    29    16    20    1
    30    16    17    2
    31    17    18    1
    32    17    39    1
    33    18    19    2
    34    18    40    1
    35    19    20    1
    36    20    41    1
    37    21    22    1
    38    21    23    1
    39    21    25    1
    40    23    24    1
    41    24    42    1
    42    24    43    1
    43    24    44    1
    44    25    45    1
    45    25    46    1
    46    26    27    1
    47    26    28    1
    48    26    47    1
    49    27    48    1
    50    27    49    1
    51    27    50    1
    52    28    51    1
    53    28    52    1
    54    28    53    1
@<TRIPOS>SUBSTRUCTURE
     1 ZINC001289445798        1 TEMP              0 ****  ****    0 ROOT


##########                                Name:    ZINC000876376999
##########                DOCK_Rotatable_Bonds:                   7
##########                         Heavy_Atoms:                  24
##########                    Molecular_Weight:             358.502
##########                DOCK_Rotatable_Bonds:                   7
##########                       Formal_Charge:          -0.0299994
##########                     HBond_Acceptors:                   7
##########                        HBond_Donors:                   2
##########                         Heavy_Atoms:                  24
##########                          Grid_Score:          -31.656076
##########                     Grid_vdw_energy:          -30.900227
##########                      Grid_es_energy:           -0.755850
##########           Internal_energy_repulsive:           31.988287

@<TRIPOS>MOLECULE
ZINC000876376999
 54 56 1 0 0
SMALL
USER_CHARGES


@<TRIPOS>ATOM
      1 C1         -7.2852    0.3980   50.8027 C.3     1  ZINC000876376999   -0.1500
      2 C2         -7.7920    1.5733   51.6410 C.3     1  ZINC000876376999   -0.1100
      3 C3         -7.0185    2.8387   51.2655 C.3     1  ZINC000876376999   -0.0700
      4 C4         -7.2029    3.1263   49.7741 C.3     1  ZINC000876376999    0.0900
      5 O5         -8.5812    3.3923   49.5071 O.3     1  ZINC000876376999   -0.5600
      6 C6         -7.5446    4.0206   52.0831 C.3     1  ZINC000876376999   -0.1100
      7 C7         -6.7939    5.2933   51.6846 C.3     1  ZINC000876376999   -0.1400
      8 C8         -5.3030    5.1191   51.9910 C.3     1  ZINC000876376999    0.1100
      9 N9         -4.8225    3.9012   51.3242 N.am    1  ZINC000876376999   -0.6300
     10 C10        -3.7526    3.9430   50.5056 C.2     1  ZINC000876376999    0.7100
     11 O11        -3.1753    4.9955   50.3128 O.2     1  ZINC000876376999   -0.5800
     12 N12        -3.3228    2.8179   49.9006 N.am    1  ZINC000876376999   -0.7500
     13 C13        -2.1599    2.8632   49.0108 C.3     1  ZINC000876376999    0.1400
     14 C14        -2.2523    1.7224   47.9902 C.3     1  ZINC000876376999   -0.1100
     15 C15        -2.6643    2.2546   46.6447 C.3     1  ZINC000876376999   -0.1100
     16 C16        -1.5321    2.4755   45.6349 C.3     1  ZINC000876376999   -0.5200
     17 H17        -1.8720    2.8908   44.6759 H       1  ZINC000876376999    0.1500
     18 C18        -0.4557    3.3446   46.3245 C.3     1  ZINC000876376999   -0.1200
     19 C19         0.4676    2.4948   47.1909 C.3     1  ZINC000876376999   -0.1200
     20 C20         0.0684    1.0023   47.1366 C.3     1  ZINC000876376999   -0.5300
     21 H21         0.9179    0.3231   47.2935 H       1  ZINC000876376999    0.1500
     22 C22        -1.0774    0.7938   48.1337 C.3     1  ZINC000876376999   -0.1000
     23 S23        -0.6827    0.8509   45.4622 S.o2    1  ZINC000876376999    2.3700
     24 O24        -1.6354   -0.2023   45.4445 O.2     1  ZINC000876376999   -0.9300
     25 O25         0.3258    0.9294   44.4644 O.2     1  ZINC000876376999   -0.9300
     26 C26        -5.5302    2.6366   51.5671 C.3     1  ZINC000876376999    0.1400
     27 H27        -7.5107    0.5776   49.7515 H       1  ZINC000876376999    0.0500
     28 H28        -6.2074    0.2983   50.9310 H       1  ZINC000876376999    0.0600
     29 H29        -7.7763   -0.5189   51.1282 H       1  ZINC000876376999    0.0500
     30 H30        -8.8539    1.7259   51.4481 H       1  ZINC000876376999    0.0600
     31 H31        -7.6424    1.3564   52.6986 H       1  ZINC000876376999    0.0700
     32 H32        -6.6047    3.9935   49.4946 H       1  ZINC000876376999    0.0500
     33 H33        -6.8810    2.2609   49.1947 H       1  ZINC000876376999    0.0400
     34 H34        -8.7668    3.6195   48.5857 H       1  ZINC000876376999    0.3800
     35 H35        -8.6092    4.1511   51.8890 H       1  ZINC000876376999    0.0700
     36 H36        -7.3905    3.8253   53.1444 H       1  ZINC000876376999    0.0700
     37 H37        -6.9272    5.4756   50.6183 H       1  ZINC000876376999    0.0700
     38 H38        -7.1851    6.1388   52.2505 H       1  ZINC000876376999    0.0800
     39 H39        -4.7503    5.9817   51.6188 H       1  ZINC000876376999    0.0700
     40 H40        -5.1596    5.0270   53.0674 H       1  ZINC000876376999    0.0700
     41 H41        -3.7835    1.9782   50.0543 H       1  ZINC000876376999    0.3900
     42 H42        -2.1403    3.8188   48.4868 H       1  ZINC000876376999    0.0800
     43 H43        -1.2483    2.7523   49.5982 H       1  ZINC000876376999    0.0700
     44 H44        -3.1372    1.1211   48.3433 H       1  ZINC000876376999    0.0900
     45 H45        -3.4020    1.5648   46.1986 H       1  ZINC000876376999    0.0900
     46 H46        -3.1994    3.2098   46.7859 H       1  ZINC000876376999    0.0900
     47 H47         0.1461    3.8353   45.5533 H       1  ZINC000876376999    0.0800
     48 H48        -0.9292    4.1123   46.9296 H       1  ZINC000876376999    0.0900
     49 H49         1.4900    2.5984   46.8143 H       1  ZINC000876376999    0.0800
     50 H50         0.4430    2.8491   48.2173 H       1  ZINC000876376999    0.0900
     51 H51        -0.6726    0.8838   49.1568 H       1  ZINC000876376999    0.0900
     52 H52        -1.4329   -0.2479   48.0461 H       1  ZINC000876376999    0.0900
     53 H53        -5.4052    2.3423   52.6091 H       1  ZINC000876376999    0.0600
     54 H54        -5.1273    1.8613   50.9153 H       1  ZINC000876376999    0.1000
@<TRIPOS>BOND
     1     1     2    1
     2     1    27    1
     3     1    28    1
     4     1    29    1
     5     2     3    1
     6     2    30    1
     7     2    31    1
     8     3    26    1
     9     3     4    1
    10     3     6    1
    11     4     5    1
    12     4    32    1
    13     4    33    1
    14     5    34    1
    15     6     7    1
    16     6    35    1
    17     6    36    1
    18     7     8    1
    19     7    37    1
    20     7    38    1
    21     8     9    1
    22     8    39    1
    23     8    40    1
    24     9    10   am
    25     9    26    1
    26    10    11    2
    27    10    12   am
    28    12    13    1
    29    12    41    1
    30    13    14    1
    31    13    42    1
    32    13    43    1
    33    14    22    1
    34    14    15    1
    35    14    44    1
    36    15    16    1
    37    15    45    1
    38    15    46    1
    39    16    17    1
    40    16    23    1
    41    16    18    1
    42    18    19    1
    43    18    47    1
    44    18    48    1
    45    19    20    1
    46    19    49    1
    47    19    50    1
    48    20    21    1
    49    20    22    1
    50    20    23    1
    51    22    51    1
    52    22    52    1
    53    23    24    2
    54    23    25    2
    55    26    53    1
    56    26    54    1
@<TRIPOS>SUBSTRUCTURE
     1 ZINC000876376999        1 TEMP              0 ****  ****    0 ROOT


##########                                Name:    ZINC000192150625
##########                DOCK_Rotatable_Bonds:                   5
##########                         Heavy_Atoms:                  28
##########                    Molecular_Weight:             377.443
##########                DOCK_Rotatable_Bonds:                   5
##########                       Formal_Charge:           0.0199997
##########                     HBond_Acceptors:                   6
##########                        HBond_Donors:                   1
##########                         Heavy_Atoms:                  28
##########                          Grid_Score:          -31.646683
##########                     Grid_vdw_energy:          -31.503052
##########                      Grid_es_energy:           -0.143631
##########           Internal_energy_repulsive:           10.988472

@<TRIPOS>MOLECULE
ZINC000192150625
 51 54 1 0 0
SMALL
USER_CHARGES


@<TRIPOS>ATOM
      1 C1        -10.3679   -3.1218   57.7917 C.3     1  ZINC000192150625   -0.0800
      2 C2        -10.1696   -2.1600   56.6486 C.2     1  ZINC000192150625    0.0400
      3 C3         -9.1252   -1.3313   56.5160 C.2     1  ZINC000192150625   -0.1800
      4 C4         -7.9577   -1.1889   57.4582 C.3     1  ZINC000192150625   -0.0800
      5 C5         -9.3466   -0.5900   55.2683 C.ar    1  ZINC000192150625   -0.1000
      6 C6         -8.6400    0.3976   54.5852 C.ar    1  ZINC000192150625   -0.0700
      7 C7         -9.1432    0.8986   53.3969 C.ar    1  ZINC000192150625    0.1200
      8 N8         -8.4406    1.8900   52.7039 N.am    1  ZINC000192150625   -0.6400
      9 C9         -7.8474    1.5992   51.5291 C.2     1  ZINC000192150625    0.5100
     10 O10        -7.9229    0.4771   51.0724 O.2     1  ZINC000192150625   -0.4900
     11 C11        -7.0973    2.6576   50.7892 C.2     1  ZINC000192150625    0.5100
     12 O12        -7.6901    3.4204   50.0546 O.2     1  ZINC000192150625   -0.5200
     13 N13        -5.7621    2.7658   50.9373 N.am    1  ZINC000192150625   -0.5800
     14 C14        -5.0297    1.8459   51.8183 C.3     1  ZINC000192150625    0.0500
     15 C15        -3.8885    1.2048   51.0226 C.3     1  ZINC000192150625   -0.1200
     16 C16        -3.0230    2.3045   50.4032 C.3     1  ZINC000192150625   -0.0500
     17 C17        -1.8796    1.6778   49.6477 C.ar    1  ZINC000192150625   -0.0300
     18 C18        -0.5908    1.7076   50.1579 C.ar    1  ZINC000192150625   -0.1700
     19 C19         0.4328    1.1223   49.4368 C.ar    1  ZINC000192150625    0.1000
     20 N20         0.1944    0.5415   48.2771 N.ar    1  ZINC000192150625   -0.4900
     21 C21        -1.0184    0.4944   47.7615 C.ar    1  ZINC000192150625    0.1000
     22 C22        -2.0923    1.0528   48.4285 C.ar    1  ZINC000192150625   -0.1700
     23 C23        -3.8702    3.1425   49.4430 C.3     1  ZINC000192150625   -0.1200
     24 C24        -5.0103    3.8018   50.2162 C.3     1  ZINC000192150625    0.1100
     25 C25       -10.3483    0.4167   52.8897 C.ar    1  ZINC000192150625   -0.1100
     26 C26       -11.0514   -0.5596   53.5604 C.ar    1  ZINC000192150625   -0.0800
     27 C27       -10.5615   -1.0740   54.7543 C.ar    1  ZINC000192150625    0.0500
     28 O28       -11.0122   -2.0135   55.6114 O.3     1  ZINC000192150625   -0.1900
     29 H29       -11.2957   -3.6746   57.6447 H       1  ZINC000192150625    0.0800
     30 H30        -9.5313   -3.8194   57.8288 H       1  ZINC000192150625    0.0900
     31 H31       -10.4201   -2.5670   58.7285 H       1  ZINC000192150625    0.0900
     32 H32        -7.1673   -1.8797   57.1643 H       1  ZINC000192150625    0.0700
     33 H33        -7.5806   -0.1670   57.4177 H       1  ZINC000192150625    0.0700
     34 H34        -8.2806   -1.4170   58.4739 H       1  ZINC000192150625    0.0700
     35 H35        -7.7063    0.7700   54.9803 H       1  ZINC000192150625    0.1400
     36 H36        -8.3803    2.7867   53.0687 H       1  ZINC000192150625    0.4300
     37 H37        -4.6201    2.3984   52.6641 H       1  ZINC000192150625    0.0700
     38 H38        -5.7049    1.0698   52.1788 H       1  ZINC000192150625    0.1600
     39 H39        -3.2790    0.5938   51.6885 H       1  ZINC000192150625    0.0800
     40 H40        -4.3029    0.5793   50.2319 H       1  ZINC000192150625    0.0700
     41 H41        -2.6292    2.9445   51.1928 H       1  ZINC000192150625    0.0900
     42 H42        -0.3891    2.1823   51.1068 H       1  ZINC000192150625    0.1300
     43 H43         1.4395    1.1412   49.8274 H       1  ZINC000192150625    0.1600
     44 H44        -1.1749    0.0102   46.8089 H       1  ZINC000192150625    0.1600
     45 H45        -3.0834    1.0107   48.0012 H       1  ZINC000192150625    0.1300
     46 H46        -3.2476    3.9111   48.9846 H       1  ZINC000192150625    0.0800
     47 H47        -4.2847    2.4989   48.6671 H       1  ZINC000192150625    0.0700
     48 H48        -5.6724    4.3184   49.5212 H       1  ZINC000192150625    0.1000
     49 H49        -4.6018    4.5142   50.9329 H       1  ZINC000192150625    0.0800
     50 H50       -10.7349    0.8127   51.9622 H       1  ZINC000192150625    0.1400
     51 H51       -11.9843   -0.9255   53.1578 H       1  ZINC000192150625    0.1400
@<TRIPOS>BOND
     1     1     2    1
     2     1    29    1
     3     1    30    1
     4     1    31    1
     5     2    28    1
     6     2     3    2
     7     3     4    1
     8     3     5    1
     9     4    32    1
    10     4    33    1
    11     4    34    1
    12     5    27   ar
    13     5     6   ar
    14     6     7   ar
    15     6    35    1
    16     7     8    1
    17     7    25   ar
    18     8     9   am
    19     8    36    1
    20     9    10    2
    21     9    11    1
    22    11    12    2
    23    11    13   am
    24    13    24    1
    25    13    14    1
    26    14    15    1
    27    14    37    1
    28    14    38    1
    29    15    16    1
    30    15    39    1
    31    15    40    1
    32    16    17    1
    33    16    23    1
    34    16    41    1
    35    17    22   ar
    36    17    18   ar
    37    18    19   ar
    38    18    42    1
    39    19    20   ar
    40    19    43    1
    41    20    21   ar
    42    21    22   ar
    43    21    44    1
    44    22    45    1
    45    23    24    1
    46    23    46    1
    47    23    47    1
    48    24    48    1
    49    24    49    1
    50    25    26   ar
    51    25    50    1
    52    26    27   ar
    53    26    51    1
    54    27    28    1
@<TRIPOS>SUBSTRUCTURE
     1 ZINC000192150625        1 TEMP              0 ****  ****    0 ROOT


##########                                Name:    ZINC000015179664
##########                DOCK_Rotatable_Bonds:                   8
##########                         Heavy_Atoms:                  25
##########                    Molecular_Weight:             361.422
##########                DOCK_Rotatable_Bonds:                   8
##########                       Formal_Charge:        -2.23517e-07
##########                     HBond_Acceptors:                   8
##########                        HBond_Donors:                   1
##########                         Heavy_Atoms:                  25
##########                          Grid_Score:          -31.634892
##########                     Grid_vdw_energy:          -30.499949
##########                      Grid_es_energy:           -1.134942
##########           Internal_energy_repulsive:           23.057968

@<TRIPOS>MOLECULE
ZINC000015179664
 44 45 1 0 0
SMALL
USER_CHARGES


@<TRIPOS>ATOM
      1 C1         -3.9887    4.6326   50.3673 C.3     1  ZINC000015179664   -0.1600
      2 C2         -4.1063    3.1437   50.6997 C.3     1  ZINC000015179664    0.1800
      3 H3         -3.9138    2.9923   51.7618 H       1  ZINC000015179664    0.1200
      4 C4         -3.0993    2.3673   49.8910 C.ar    1  ZINC000015179664   -0.1000
      5 C5         -2.1039    1.6519   50.5294 C.ar    1  ZINC000015179664   -0.0700
      6 C6         -1.1800    0.9396   49.7873 C.ar    1  ZINC000015179664   -0.1200
      7 C7         -1.2522    0.9425   48.4071 C.ar    1  ZINC000015179664   -0.0500
      8 C8         -2.2486    1.6573   47.7685 C.ar    1  ZINC000015179664   -0.0400
      9 N9         -2.3256    1.6608   46.2903 N.pl3   1  ZINC000015179664    0.0300
     10 O10        -1.5113    1.0340   45.6365 O.2     1  ZINC000015179664   -0.1600
     11 O11        -3.2034    2.2905   45.7277 O.2     1  ZINC000015179664   -0.1500
     12 C12        -3.1747    2.3659   48.5104 C.ar    1  ZINC000015179664   -0.0400
     13 N13        -5.4567    2.6765   50.3767 N.am    1  ZINC000015179664   -0.6100
     14 C14        -6.3044    3.4558   49.4709 C.3     1  ZINC000015179664    0.0600
     15 C15        -5.9192    1.5296   50.9127 C.2     1  ZINC000015179664    0.5200
     16 O16        -5.2169    0.8837   51.6613 O.2     1  ZINC000015179664   -0.5200
     17 C17        -7.3089    1.0498   50.5818 C.3     1  ZINC000015179664   -0.1500
     18 C18        -8.3241    1.7810   51.4624 C.3     1  ZINC000015179664    0.1300
     19 N19        -8.8077    0.8743   52.5064 N.am    1  ZINC000015179664   -0.7300
     20 C20        -8.2262    0.8751   53.7222 C.2     1  ZINC000015179664    0.5800
     21 O21        -7.2986    1.6276   53.9523 O.2     1  ZINC000015179664   -0.5300
     22 C22        -8.7134   -0.0348   54.7717 C.2     1  ZINC000015179664   -0.1500
     23 C23        -9.7355   -0.9129   54.5876 C.2     1  ZINC000015179664   -0.2200
     24 S24       -10.0312   -1.8050   56.0095 S.3     1  ZINC000015179664    0.1900
     25 C25        -8.7500   -0.9820   56.8821 C.2     1  ZINC000015179664   -0.2300
     26 C26        -8.1511   -0.0910   56.1008 C.2     1  ZINC000015179664   -0.0900
     27 H27        -2.9839    4.9802   50.6076 H       1  ZINC000015179664    0.0800
     28 H28        -4.1811    4.7840   49.3051 H       1  ZINC000015179664    0.0600
     29 H29        -4.7171    5.1941   50.9522 H       1  ZINC000015179664    0.0700
     30 H30        -2.0474    1.6496   51.6079 H       1  ZINC000015179664    0.1500
     31 H31        -0.4017    0.3813   50.2862 H       1  ZINC000015179664    0.1500
     32 H32        -0.5301    0.3866   47.8274 H       1  ZINC000015179664    0.1600
     33 H33        -3.9530    2.9243   48.0117 H       1  ZINC000015179664    0.1600
     34 H34        -6.1107    3.1534   48.4418 H       1  ZINC000015179664    0.0600
     35 H35        -7.3526    3.2774   49.7109 H       1  ZINC000015179664    0.0800
     36 H36        -6.0806    4.5163   49.5863 H       1  ZINC000015179664    0.0800
     37 H37        -7.5238    1.2544   49.5330 H       1  ZINC000015179664    0.1000
     38 H38        -7.3759   -0.0227   50.7638 H       1  ZINC000015179664    0.1000
     39 H39        -7.8479    2.6460   51.9244 H       1  ZINC000015179664    0.0800
     40 H40        -9.1636    2.1120   50.8510 H       1  ZINC000015179664    0.0800
     41 H41        -9.5467    0.2733   52.3226 H       1  ZINC000015179664    0.4000
     42 H42       -10.2854   -1.0292   53.6653 H       1  ZINC000015179664    0.1700
     43 H43        -8.4832   -1.1760   57.9105 H       1  ZINC000015179664    0.1700
     44 H44        -7.3325    0.5329   56.4279 H       1  ZINC000015179664    0.1600
@<TRIPOS>BOND
     1     1     2    1
     2     1    27    1
     3     1    28    1
     4     1    29    1
     5     2     3    1
     6     2     4    1
     7     2    13    1
     8     4    12   ar
     9     4     5   ar
    10     5     6   ar
    11     5    30    1
    12     6     7   ar
    13     6    31    1
    14     7     8   ar
    15     7    32    1
    16     8     9    1
    17     8    12   ar
    18     9    10    2
    19     9    11    2
    20    12    33    1
    21    13    14    1
    22    13    15   am
    23    14    34    1
    24    14    35    1
    25    14    36    1
    26    15    16    2
    27    15    17    1
    28    17    18    1
    29    17    37    1
    30    17    38    1
    31    18    19    1
    32    18    39    1
    33    18    40    1
    34    19    20   am
    35    19    41    1
    36    20    21    2
    37    20    22    1
    38    22    26    1
    39    22    23    2
    40    23    24    1
    41    23    42    1
    42    24    25    1
    43    25    26    2
    44    25    43    1
    45    26    44    1
@<TRIPOS>SUBSTRUCTURE
     1 ZINC000015179664        1 TEMP              0 ****  ****    0 ROOT


##########                                Name:    ZINC000740930783
##########                DOCK_Rotatable_Bonds:                  11
##########                         Heavy_Atoms:                  27
##########                    Molecular_Weight:             413.257
##########                DOCK_Rotatable_Bonds:                  11
##########                       Formal_Charge:          -0.0100004
##########                     HBond_Acceptors:                   9
##########                        HBond_Donors:                   4
##########                         Heavy_Atoms:                  27
##########                          Grid_Score:          -31.634602
##########                     Grid_vdw_energy:          -28.130924
##########                      Grid_es_energy:           -3.503677
##########           Internal_energy_repulsive:           11.872610

@<TRIPOS>MOLECULE
ZINC000740930783
 45 46 1 0 0
SMALL
USER_CHARGES


@<TRIPOS>ATOM
      1 C1         -6.1784    3.2106   57.4437 C.3     1  ZINC000740930783    0.0200
      2 O2         -6.1408    1.7992   57.6643 O.3     1  ZINC000740930783   -0.3000
      3 C3         -7.0712    1.0480   57.0165 C.ar    1  ZINC000740930783    0.1200
      4 C4         -7.2668    1.2110   55.6589 C.ar    1  ZINC000740930783   -0.1400
      5 C5         -8.2232    0.4374   54.9956 C.ar    1  ZINC000740930783   -0.0800
      6 C6         -8.4356    0.6077   53.5448 C.2     1  ZINC000740930783    0.5600
      7 O7         -9.3341    0.0075   52.9874 O.2     1  ZINC000740930783   -0.5300
      8 N8         -7.6336    1.4286   52.8381 N.am    1  ZINC000740930783   -0.7200
      9 C9         -7.8433    1.5963   51.3979 C.3     1  ZINC000740930783    0.0900
     10 C10        -7.0420    2.8021   50.9029 C.3     1  ZINC000740930783    0.1400
     11 H11        -7.3809    3.7003   51.4189 H       1  ZINC000740930783    0.1200
     12 O12        -7.2373    2.9587   49.4960 O.3     1  ZINC000740930783   -0.5500
     13 C13        -5.5781    2.5826   51.1854 C.ar    1  ZINC000740930783   -0.1100
     14 C14        -4.8454    1.7133   50.3999 C.ar    1  ZINC000740930783   -0.1000
     15 C15        -3.5022    1.5119   50.6589 C.ar    1  ZINC000740930783   -0.1100
     16 C16        -2.8918    2.1793   51.7041 C.ar    1  ZINC000740930783   -0.1000
     17 C17        -3.6237    3.0490   52.4907 C.ar    1  ZINC000740930783   -0.1100
     18 C18        -4.9661    3.2557   52.2281 C.ar    1  ZINC000740930783   -0.0300
     19 Cl19       -5.8860    4.3478   53.2153 Cl      1  ZINC000740930783   -0.0600
     20 C20        -8.9774   -0.4977   55.7082 C.ar    1  ZINC000740930783   -0.1000
     21 C21        -8.7772   -0.6559   57.0637 C.ar    1  ZINC000740930783   -0.0200
     22 Cl22       -9.7149   -1.8188   57.9479 Cl      1  ZINC000740930783   -0.0300
     23 C23        -7.8230    0.1095   57.7215 C.ar    1  ZINC000740930783    0.0900
     24 O24        -7.6292   -0.0495   59.0563 O.3     1  ZINC000740930783   -0.2900
     25 C25        -8.4441    0.7361   59.9284 C.3     1  ZINC000740930783    0.0400
     26 C26        -8.4712    0.1037   61.2961 C.2     1  ZINC000740930783    0.5200
     27 N27        -7.5206    0.4126   62.2003 N.am    1  ZINC000740930783   -0.8500
     28 O28        -9.3482   -0.6831   61.5830 O.2     1  ZINC000740930783   -0.5100
     29 H29        -6.0342    3.4165   56.3831 H       1  ZINC000740930783    0.0600
     30 H30        -7.1445    3.6025   57.7618 H       1  ZINC000740930783    0.0600
     31 H31        -5.3852    3.6894   58.0179 H       1  ZINC000740930783    0.1100
     32 H32        -6.6823    1.9353   55.1111 H       1  ZINC000740930783    0.1600
     33 H33        -6.9175    1.9084   53.2831 H       1  ZINC000740930783    0.4100
     34 H34        -7.5104    0.6995   50.8754 H       1  ZINC000740930783    0.0900
     35 H35        -8.9031    1.7589   51.2017 H       1  ZINC000740930783    0.0800
     36 H36        -8.1518    3.1472   49.2444 H       1  ZINC000740930783    0.3800
     37 H37        -5.3220    1.1911   49.5835 H       1  ZINC000740930783    0.1300
     38 H38        -2.9300    0.8324   50.0447 H       1  ZINC000740930783    0.1300
     39 H39        -1.8427    2.0209   51.9065 H       1  ZINC000740930783    0.1400
     40 H40        -3.1466    3.5704   53.3073 H       1  ZINC000740930783    0.1400
     41 H41        -9.7173   -1.0966   55.1980 H       1  ZINC000740930783    0.1500
     42 H42        -8.0323    1.7427   60.0017 H       1  ZINC000740930783    0.0900
     43 H43        -9.4579    0.7864   59.5312 H       1  ZINC000740930783    0.0900
     44 H44        -7.5386    0.0064   63.0810 H       1  ZINC000740930783    0.4000
     45 H45        -6.8183    1.0410   61.9703 H       1  ZINC000740930783    0.4100
@<TRIPOS>BOND
     1     1     2    1
     2     1    29    1
     3     1    30    1
     4     1    31    1
     5     2     3    1
     6     3    23   ar
     7     3     4   ar
     8     4     5   ar
     9     4    32    1
    10     5     6    1
    11     5    20   ar
    12     6     7    2
    13     6     8   am
    14     8     9    1
    15     8    33    1
    16     9    10    1
    17     9    34    1
    18     9    35    1
    19    10    11    1
    20    10    12    1
    21    10    13    1
    22    12    36    1
    23    13    18   ar
    24    13    14   ar
    25    14    15   ar
    26    14    37    1
    27    15    16   ar
    28    15    38    1
    29    16    17   ar
    30    16    39    1
    31    17    18   ar
    32    17    40    1
    33    18    19    1
    34    20    21   ar
    35    20    41    1
    36    21    22    1
    37    21    23   ar
    38    23    24    1
    39    24    25    1
    40    25    26    1
    41    25    42    1
    42    25    43    1
    43    26    27   am
    44    26    28    2
    45    27    44    1
    46    27    45    1
@<TRIPOS>SUBSTRUCTURE
     1 ZINC000740930783        1 TEMP              0 ****  ****    0 ROOT


##########                                Name:    ZINC001039825450
##########                DOCK_Rotatable_Bonds:                   8
##########                         Heavy_Atoms:                  24
##########                    Molecular_Weight:             337.339
##########                DOCK_Rotatable_Bonds:                   8
##########                       Formal_Charge:           0.0100001
##########                     HBond_Acceptors:                  11
##########                        HBond_Donors:                   4
##########                         Heavy_Atoms:                  24
##########                          Grid_Score:          -31.632198
##########                     Grid_vdw_energy:          -30.509796
##########                      Grid_es_energy:           -1.122402
##########           Internal_energy_repulsive:           10.213064

@<TRIPOS>MOLECULE
ZINC001039825450
 43 45 1 0 0
SMALL
USER_CHARGES


@<TRIPOS>ATOM
      1 O1         -6.8967    3.1302   49.0629 O.2     1  ZINC001039825450   -0.5100
      2 C2         -6.7227    3.8349   50.0345 C.2     1  ZINC001039825450    0.5000
      3 C3         -7.5908    5.0476   50.2510 C.3     1  ZINC001039825450    0.1300
      4 N4         -8.8233    4.9113   49.4708 N.pl3   1  ZINC001039825450   -0.1500
      5 N5         -9.3068    5.8231   48.7036 N.2     1  ZINC001039825450   -0.2800
      6 C6        -10.4144    5.3724   48.1592 C.2     1  ZINC001039825450   -0.0200
      7 C7        -10.5874    4.0795   48.6584 C.2     1  ZINC001039825450   -0.0200
      8 N8         -9.5662    3.8617   49.4556 N.2     1  ZINC001039825450   -0.2800
      9 N9         -5.7566    3.5305   50.9236 N.am    1  ZINC001039825450   -0.7300
     10 C10        -4.9127    2.3516   50.7132 C.3     1  ZINC001039825450    0.1000
     11 C11        -3.5941    2.7777   50.0645 C.3     1  ZINC001039825450    0.1100
     12 O12        -3.2542    4.1128   50.4441 O.3     1  ZINC001039825450   -0.5400
     13 C13        -2.4558    1.7906   50.4353 C.3     1  ZINC001039825450   -0.1600
     14 C14        -1.4956    1.9568   49.2310 C.3     1  ZINC001039825450    0.1000
     15 N15        -2.3800    2.1321   48.0645 N.am    1  ZINC001039825450   -0.6100
     16 C16        -2.0553    1.8613   46.7849 C.2     1  ZINC001039825450    0.5200
     17 O17        -2.8657    2.0455   45.9016 O.2     1  ZINC001039825450   -0.5100
     18 C18        -0.6852    1.3293   46.4516 C.3     1  ZINC001039825450    0.1100
     19 H19        -0.2556    0.8158   47.3117 H       1  ZINC001039825450    0.1200
     20 C20         0.2395    2.4707   45.9857 C.3     1  ZINC001039825450    0.1100
     21 N21         0.5985    2.0941   44.6102 N.am    1  ZINC001039825450   -0.7400
     22 C22         0.0002    0.9364   44.3006 C.2     1  ZINC001039825450    0.7100
     23 O23         0.1260    0.3934   43.2200 O.2     1  ZINC001039825450   -0.5800
     24 N24        -0.7496    0.4280   45.2915 N.am    1  ZINC001039825450   -0.7200
     25 C25        -3.6751    2.6507   48.5286 C.3     1  ZINC001039825450    0.1200
     26 H26        -7.8383    5.1332   51.3091 H       1  ZINC001039825450    0.1400
     27 H27        -7.0545    5.9405   49.9299 H       1  ZINC001039825450    0.1400
     28 H28       -11.0591    5.8947   47.4679 H       1  ZINC001039825450    0.2000
     29 H29       -11.3932    3.3969   48.4319 H       1  ZINC001039825450    0.2000
     30 H30        -5.6201    4.0920   51.7028 H       1  ZINC001039825450    0.4000
     31 H31        -4.7085    1.8751   51.6720 H       1  ZINC001039825450    0.0900
     32 H32        -5.4281    1.6476   50.0599 H       1  ZINC001039825450    0.0900
     33 H33        -2.4492    4.4477   50.0258 H       1  ZINC001039825450    0.3800
     34 H34        -1.9705    2.0857   51.3655 H       1  ZINC001039825450    0.0900
     35 H35        -2.8299    0.7689   50.4985 H       1  ZINC001039825450    0.0900
     36 H36        -0.8667    2.8367   49.3659 H       1  ZINC001039825450    0.0800
     37 H37        -0.8808    1.0649   49.1102 H       1  ZINC001039825450    0.0800
     38 H38        -0.2923    3.4221   45.9955 H       1  ZINC001039825450    0.0900
     39 H39         1.1295    2.5222   46.6129 H       1  ZINC001039825450    0.1000
     40 H40         1.1767    2.6032   44.0209 H       1  ZINC001039825450    0.4400
     41 H41        -1.2537   -0.3996   45.2469 H       1  ZINC001039825450    0.4400
     42 H42        -4.4711    1.9581   48.2554 H       1  ZINC001039825450    0.0900
     43 H43        -3.8633    3.6285   48.0852 H       1  ZINC001039825450    0.0900
@<TRIPOS>BOND
     1     1     2    2
     2     2     3    1
     3     2     9   am
     4     3     4    1
     5     3    26    1
     6     3    27    1
     7     4     8    1
     8     4     5    1
     9     5     6    2
    10     6     7    1
    11     6    28    1
    12     7     8    2
    13     7    29    1
    14     9    10    1
    15     9    30    1
    16    10    11    1
    17    10    31    1
    18    10    32    1
    19    11    25    1
    20    11    12    1
    21    11    13    1
    22    12    33    1
    23    13    14    1
    24    13    34    1
    25    13    35    1
    26    14    15    1
    27    14    36    1
    28    14    37    1
    29    15    16   am
    30    15    25    1
    31    16    17    2
    32    16    18    1
    33    18    19    1
    34    18    24    1
    35    18    20    1
    36    20    21    1
    37    20    38    1
    38    20    39    1
    39    21    22   am
    40    21    40    1
    41    22    23    2
    42    22    24   am
    43    24    41    1
    44    25    42    1
    45    25    43    1
@<TRIPOS>SUBSTRUCTURE
     1 ZINC001039825450        1 TEMP              0 ****  ****    0 ROOT


##########                                Name:    ZINC001492779707
##########                DOCK_Rotatable_Bonds:                   8
##########                         Heavy_Atoms:                  27
##########                    Molecular_Weight:             374.483
##########                DOCK_Rotatable_Bonds:                   8
##########                       Formal_Charge:           0.0199998
##########                     HBond_Acceptors:                   7
##########                        HBond_Donors:                   0
##########                         Heavy_Atoms:                  27
##########                          Grid_Score:          -31.623817
##########                     Grid_vdw_energy:          -30.456362
##########                      Grid_es_energy:           -1.167455
##########           Internal_energy_repulsive:            9.079498

@<TRIPOS>MOLECULE
ZINC001492779707
 57 59 1 0 0
SMALL
USER_CHARGES


@<TRIPOS>ATOM
      1 C1        -10.9219   -0.7039   54.4400 C.3     1  ZINC001492779707   -0.0700
      2 C2         -9.8157   -0.5088   55.4446 C.2     1  ZINC001492779707    0.1800
      3 N3         -8.6099   -0.0842   55.1927 N.2     1  ZINC001492779707   -0.2900
      4 N4         -7.9238   -0.0360   56.2786 N.2     1  ZINC001492779707   -0.3100
      5 C5         -8.6613   -0.4305   57.2897 C.2     1  ZINC001492779707    0.3400
      6 N6         -8.2656   -0.5128   58.6153 N.3     1  ZINC001492779707   -0.4600
      7 C7         -7.0226   -1.2845   58.7467 C.3     1  ZINC001492779707    0.0300
      8 C8         -8.1198    0.8247   59.2051 C.3     1  ZINC001492779707    0.1100
      9 C9         -9.0969    0.9817   60.3416 C.ar    1  ZINC001492779707   -0.0400
     10 C10       -10.2971    1.6359   60.1352 C.ar    1  ZINC001492779707   -0.1300
     11 C11       -11.1959    1.7816   61.1760 C.ar    1  ZINC001492779707   -0.0800
     12 C12       -10.8962    1.2737   62.4249 C.ar    1  ZINC001492779707   -0.2100
     13 C13        -9.6921    0.6168   62.6348 C.ar    1  ZINC001492779707    0.1300
     14 O14        -9.3950    0.1157   63.8627 O.3     1  ZINC001492779707   -0.3100
     15 C15        -8.6337    0.9509   64.7373 C.3     1  ZINC001492779707    0.0800
     16 C16        -9.5771    1.6766   65.6987 C.3     1  ZINC001492779707   -0.1500
     17 C17        -7.6524    0.0917   65.5370 C.3     1  ZINC001492779707   -0.1800
     18 C18        -8.7948    0.4670   61.5878 C.ar    1  ZINC001492779707   -0.1400
     19 N19        -9.8931   -0.7390   56.7903 N.pl3   1  ZINC001492779707   -0.4600
     20 C20       -11.0547   -1.2252   57.5390 C.3     1  ZINC001492779707    0.1200
     21 C21       -11.0216   -2.7537   57.5959 C.3     1  ZINC001492779707   -0.1200
     22 C22       -12.4220   -3.2828   57.9118 C.3     1  ZINC001492779707    0.0600
     23 H23       -12.3976   -4.3713   57.9618 H       1  ZINC001492779707    0.0800
     24 C24       -12.8907   -2.7191   59.2564 C.3     1  ZINC001492779707    0.0300
     25 O25       -14.2416   -3.1275   59.4913 O.3     1  ZINC001492779707   -0.3800
     26 C26       -15.1511   -2.7149   58.4668 C.3     1  ZINC001492779707    0.0200
     27 C27       -14.6824   -3.2786   57.1223 C.3     1  ZINC001492779707    0.0300
     28 O28       -13.3312   -2.8713   56.8865 O.3     1  ZINC001492779707   -0.3800
     29 H29       -11.4944    0.2189   54.3461 H       1  ZINC001492779707    0.0900
     30 H30       -10.4925   -0.9652   53.4728 H       1  ZINC001492779707    0.1000
     31 H31       -11.5791   -1.5067   54.7745 H       1  ZINC001492779707    0.0800
     32 H32        -6.2065   -0.7433   58.2679 H       1  ZINC001492779707    0.0500
     33 H33        -6.7934   -1.4273   59.8027 H       1  ZINC001492779707    0.0900
     34 H34        -7.1453   -2.2555   58.2670 H       1  ZINC001492779707    0.0700
     35 H35        -7.1037    0.9477   59.5798 H       1  ZINC001492779707    0.0700
     36 H36        -8.3210    1.5805   58.4459 H       1  ZINC001492779707    0.0900
     37 H37       -10.5332    2.0340   59.1593 H       1  ZINC001492779707    0.1200
     38 H38       -12.1327    2.2933   61.0122 H       1  ZINC001492779707    0.1300
     39 H39       -11.5982    1.3881   63.2377 H       1  ZINC001492779707    0.1300
     40 H40        -8.0801    1.6832   64.1497 H       1  ZINC001492779707    0.0700
     41 H41       -10.1308    0.9442   66.2864 H       1  ZINC001492779707    0.0700
     42 H42        -8.9964    2.3137   66.3659 H       1  ZINC001492779707    0.0800
     43 H43       -10.2762    2.2887   65.1290 H       1  ZINC001492779707    0.0700
     44 H44        -6.9803   -0.4253   64.8521 H       1  ZINC001492779707    0.0600
     45 H45        -7.0717    0.7288   66.2041 H       1  ZINC001492779707    0.0700
     46 H46        -8.2060   -0.6407   66.1246 H       1  ZINC001492779707    0.0700
     47 H47        -7.8570   -0.0440   61.7485 H       1  ZINC001492779707    0.1300
     48 H48       -11.0285   -0.8231   58.5518 H       1  ZINC001492779707    0.1000
     49 H49       -11.9689   -0.8998   57.0425 H       1  ZINC001492779707    0.1000
     50 H50       -10.6936   -3.1461   56.6333 H       1  ZINC001492779707    0.0900
     51 H51       -10.3283   -3.0734   58.3739 H       1  ZINC001492779707    0.0800
     52 H52       -12.2514   -3.0989   60.0534 H       1  ZINC001492779707    0.1100
     53 H53       -12.8381   -1.6306   59.2334 H       1  ZINC001492779707    0.0600
     54 H54       -16.1488   -3.0918   58.6920 H       1  ZINC001492779707    0.1100
     55 H55       -15.1744   -1.6264   58.4173 H       1  ZINC001492779707    0.0600
     56 H56       -14.7350   -4.3671   57.1452 H       1  ZINC001492779707    0.0600
     57 H57       -15.3217   -2.8987   56.3253 H       1  ZINC001492779707    0.1100
@<TRIPOS>BOND
     1     1     2    1
     2     1    29    1
     3     1    30    1
     4     1    31    1
     5     2    19    1
     6     2     3    2
     7     3     4    1
     8     4     5    2
     9     5     6    1
    10     5    19    1
    11     6     7    1
    12     6     8    1
    13     7    32    1
    14     7    33    1
    15     7    34    1
    16     8     9    1
    17     8    35    1
    18     8    36    1
    19     9    18   ar
    20     9    10   ar
    21    10    11   ar
    22    10    37    1
    23    11    12   ar
    24    11    38    1
    25    12    13   ar
    26    12    39    1
    27    13    14    1
    28    13    18   ar
    29    14    15    1
    30    15    16    1
    31    15    17    1
    32    15    40    1
    33    16    41    1
    34    16    42    1
    35    16    43    1
    36    17    44    1
    37    17    45    1
    38    17    46    1
    39    18    47    1
    40    19    20    1
    41    20    21    1
    42    20    48    1
    43    20    49    1
    44    21    22    1
    45    21    50    1
    46    21    51    1
    47    22    23    1
    48    22    28    1
    49    22    24    1
    50    24    25    1
    51    24    52    1
    52    24    53    1
    53    25    26    1
    54    26    27    1
    55    26    54    1
    56    26    55    1
    57    27    28    1
    58    27    56    1
    59    27    57    1
@<TRIPOS>SUBSTRUCTURE
     1 ZINC001492779707        1 TEMP              0 ****  ****    0 ROOT


##########                                Name:    ZINC000771225867
##########                DOCK_Rotatable_Bonds:                   9
##########                         Heavy_Atoms:                  23
##########                    Molecular_Weight:             355.802
##########                DOCK_Rotatable_Bonds:                   9
##########                       Formal_Charge:        -3.12924e-07
##########                     HBond_Acceptors:                   9
##########                        HBond_Donors:                   3
##########                         Heavy_Atoms:                  23
##########                          Grid_Score:          -31.622709
##########                     Grid_vdw_energy:          -31.358599
##########                      Grid_es_energy:           -0.264110
##########           Internal_energy_repulsive:            9.374135

@<TRIPOS>MOLECULE
ZINC000771225867
 37 38 1 0 0
SMALL
USER_CHARGES


@<TRIPOS>ATOM
      1 C1         -7.8094   -0.2856   65.7839 C.3     1  ZINC000771225867    0.0400
      2 O2         -7.8747   -0.1140   64.3667 O.3     1  ZINC000771225867   -0.3600
      3 C3         -9.0812    0.1846   63.8405 C.2     1  ZINC000771225867    0.5500
      4 O4        -10.0524    0.2900   64.5664 O.2     1  ZINC000771225867   -0.4900
      5 C5         -9.2168    0.3751   62.4446 C.2     1  ZINC000771225867   -0.3400
      6 C6        -10.3878    0.6048   61.7707 C.2     1  ZINC000771225867    0.2700
      7 Cl7       -11.9309    0.6992   62.5603 Cl      1  ZINC000771225867    0.0400
      8 N8        -10.2378    0.7469   60.4781 N.2     1  ZINC000771225867   -0.5500
      9 C9         -9.0282    0.6553   60.0038 C.2     1  ZINC000771225867    0.3400
     10 N10        -8.6959    0.7803   58.6724 N.pl3   1  ZINC000771225867   -0.6700
     11 C11        -7.5853    0.0019   58.1185 C.3     1  ZINC000771225867    0.1700
     12 C12        -7.9774   -1.4515   58.0463 C.ar    1  ZINC000771225867   -0.0800
     13 C13        -7.1113   -2.4243   58.5097 C.ar    1  ZINC000771225867   -0.1300
     14 C14        -7.4681   -3.7587   58.4449 C.ar    1  ZINC000771225867   -0.0800
     15 C15        -8.6913   -4.1229   57.9166 C.ar    1  ZINC000771225867   -0.2000
     16 C16        -9.5624   -3.1485   57.4508 C.ar    1  ZINC000771225867    0.1300
     17 O17       -10.7666   -3.5042   56.9310 O.3     1  ZINC000771225867   -0.2900
     18 C18       -11.9313   -3.0115   57.5961 C.3     1  ZINC000771225867    0.0400
     19 C19       -13.1577   -3.6614   57.0092 C.2     1  ZINC000771225867    0.5200
     20 N20       -13.7848   -3.0934   55.9600 N.am    1  ZINC000771225867   -0.8500
     21 O21       -13.5805   -4.6957   57.4810 O.2     1  ZINC000771225867   -0.5200
     22 C22        -9.2044   -1.8102   57.5221 C.ar    1  ZINC000771225867   -0.1200
     23 S23        -7.9097    0.3671   61.2634 S.3     1  ZINC000771225867    0.2200
     24 H24        -8.1240    0.6346   66.2762 H       1  ZINC000771225867    0.0600
     25 H25        -8.4688   -1.1008   66.0819 H       1  ZINC000771225867    0.0600
     26 H26        -6.7857   -0.5216   66.0746 H       1  ZINC000771225867    0.1000
     27 H27        -9.1973    1.3837   58.1020 H       1  ZINC000771225867    0.4200
     28 H28        -7.3506    0.3650   57.1179 H       1  ZINC000771225867    0.0900
     29 H29        -6.7102    0.1107   58.7591 H       1  ZINC000771225867    0.0900
     30 H30        -6.1544   -2.1415   58.9228 H       1  ZINC000771225867    0.1300
     31 H31        -6.7897   -4.5168   58.8073 H       1  ZINC000771225867    0.1300
     32 H32        -8.9693   -5.1653   57.8659 H       1  ZINC000771225867    0.1300
     33 H33       -11.8693   -3.2457   58.6588 H       1  ZINC000771225867    0.1000
     34 H34       -11.9949   -1.9312   57.4653 H       1  ZINC000771225867    0.1000
     35 H35       -14.5735   -3.5124   55.5815 H       1  ZINC000771225867    0.4000
     36 H36       -13.4472   -2.2657   55.5834 H       1  ZINC000771225867    0.4100
     37 H37        -9.8806   -1.0498   57.1602 H       1  ZINC000771225867    0.1400
@<TRIPOS>BOND
     1     1     2    1
     2     1    24    1
     3     1    25    1
     4     1    26    1
     5     2     3    1
     6     3     4    2
     7     3     5    1
     8     5    23    1
     9     5     6    2
    10     6     7    1
    11     6     8    1
    12     8     9    2
    13     9    10    1
    14     9    23    1
    15    10    11    1
    16    10    27    1
    17    11    12    1
    18    11    28    1
    19    11    29    1
    20    12    22   ar
    21    12    13   ar
    22    13    14   ar
    23    13    30    1
    24    14    15   ar
    25    14    31    1
    26    15    16   ar
    27    15    32    1
    28    16    17    1
    29    16    22   ar
    30    17    18    1
    31    18    19    1
    32    18    33    1
    33    18    34    1
    34    19    20   am
    35    19    21    2
    36    20    35    1
    37    20    36    1
    38    22    37    1
@<TRIPOS>SUBSTRUCTURE
     1 ZINC000771225867        1 TEMP              0 ****  ****    0 ROOT


##########                                Name:    ZINC000788423111
##########                DOCK_Rotatable_Bonds:                   7
##########                         Heavy_Atoms:                  23
##########                    Molecular_Weight:             399.243
##########                DOCK_Rotatable_Bonds:                   7
##########                       Formal_Charge:         1.04308e-07
##########                     HBond_Acceptors:                   8
##########                        HBond_Donors:                   1
##########                         Heavy_Atoms:                  23
##########                          Grid_Score:          -31.610065
##########                     Grid_vdw_energy:          -30.289555
##########                      Grid_es_energy:           -1.320512
##########           Internal_energy_repulsive:            4.390136

@<TRIPOS>MOLECULE
ZINC000788423111
 35 37 1 0 0
SMALL
USER_CHARGES


@<TRIPOS>ATOM
      1 O1         -6.6768    0.2919   58.6481 O.3     1  ZINC000788423111   -0.5400
      2 C2         -7.8071   -0.5278   58.9526 C.3     1  ZINC000788423111    0.1000
      3 H3         -8.6958   -0.1124   58.4774 H       1  ZINC000788423111    0.1300
      4 C4         -8.0123   -0.5709   60.4682 C.3     1  ZINC000788423111    0.0300
      5 O5         -8.2561    0.7509   60.9537 O.3     1  ZINC000788423111   -0.2900
      6 C6         -8.8352    0.8613   62.1781 C.ar    1  ZINC000788423111    0.1700
      7 C7        -10.0956    1.4261   62.3016 C.ar    1  ZINC000788423111   -0.2400
      8 C8        -10.6833    1.5377   63.5496 C.ar    1  ZINC000788423111    0.1500
      9 F9        -11.9113    2.0878   63.6711 F       1  ZINC000788423111   -0.1300
     10 C10       -10.0134    1.0852   64.6736 C.ar    1  ZINC000788423111   -0.1600
     11 C11        -8.7557    0.5220   64.5512 C.ar    1  ZINC000788423111   -0.0300
     12 Br12       -7.8433   -0.0951   66.0883 Br      1  ZINC000788423111   -0.0200
     13 C13        -8.1682    0.4038   63.3056 C.ar    1  ZINC000788423111   -0.1300
     14 C14        -7.5648   -1.9453   58.4302 C.3     1  ZINC000788423111    0.1000
     15 N15        -8.8508   -2.5923   58.1590 N.pl3   1  ZINC000788423111   -0.1300
     16 N16        -9.0183   -3.6371   57.4261 N.2     1  ZINC000788423111   -0.0500
     17 N17       -10.2727   -3.9365   57.4024 N.2     1  ZINC000788423111   -0.2600
     18 C18       -10.9124   -3.0312   58.1587 C.2     1  ZINC000788423111    0.2400
     19 C19       -12.3660   -2.9717   58.4266 C.2     1  ZINC000788423111   -0.1300
     20 C20       -12.9780   -2.0513   59.1970 C.2     1  ZINC000788423111   -0.0800
     21 C21       -14.3460   -2.2011   59.2980 C.2     1  ZINC000788423111   -0.1400
     22 C22       -14.8540   -3.2331   58.6184 C.2     1  ZINC000788423111   -0.2000
     23 S23       -13.5638   -4.0871   57.7825 S.3     1  ZINC000788423111    0.1700
     24 N24        -9.9906   -2.2076   58.6214 N.2     1  ZINC000788423111   -0.2900
     25 H25        -6.6906    1.1570   59.0798 H       1  ZINC000788423111    0.3800
     26 H26        -8.8663   -1.2068   60.7013 H       1  ZINC000788423111    0.0900
     27 H27        -7.1185   -0.9738   60.9445 H       1  ZINC000788423111    0.0800
     28 H28       -10.6180    1.7790   61.4247 H       1  ZINC000788423111    0.1500
     29 H29       -10.4730    1.1723   65.6470 H       1  ZINC000788423111    0.1500
     30 H30        -7.1865   -0.0363   63.2109 H       1  ZINC000788423111    0.1500
     31 H31        -6.9805   -1.8989   57.5113 H       1  ZINC000788423111    0.1300
     32 H32        -7.0195   -2.5201   59.1788 H       1  ZINC000788423111    0.1300
     33 H33       -12.4403   -1.2591   59.6964 H       1  ZINC000788423111    0.1500
     34 H34       -14.9606   -1.5335   59.8836 H       1  ZINC000788423111    0.1500
     35 H35       -15.8999   -3.4999   58.5839 H       1  ZINC000788423111    0.1700
@<TRIPOS>BOND
     1     1     2    1
     2     1    25    1
     3     2     3    1
     4     2     4    1
     5     2    14    1
     6     4     5    1
     7     4    26    1
     8     4    27    1
     9     5     6    1
    10     6    13   ar
    11     6     7   ar
    12     7     8   ar
    13     7    28    1
    14     8     9    1
    15     8    10   ar
    16    10    11   ar
    17    10    29    1
    18    11    12    1
    19    11    13   ar
    20    13    30    1
    21    14    15    1
    22    14    31    1
    23    14    32    1
    24    15    24    1
    25    15    16    1
    26    16    17    2
    27    17    18    1
    28    18    19    1
    29    18    24    2
    30    19    23    1
    31    19    20    2
    32    20    21    1
    33    20    33    1
    34    21    22    2
    35    21    34    1
    36    22    23    1
    37    22    35    1
@<TRIPOS>SUBSTRUCTURE
     1 ZINC000788423111        1 TEMP              0 ****  ****    0 ROOT


##########                                Name:    ZINC000151991096
##########                DOCK_Rotatable_Bonds:                   8
##########                         Heavy_Atoms:                  27
##########                    Molecular_Weight:             364.444
##########                DOCK_Rotatable_Bonds:                   8
##########                       Formal_Charge:          -0.0200004
##########                     HBond_Acceptors:                   5
##########                        HBond_Donors:                   1
##########                         Heavy_Atoms:                  27
##########                          Grid_Score:          -31.599827
##########                     Grid_vdw_energy:          -30.412771
##########                      Grid_es_energy:           -1.187055
##########           Internal_energy_repulsive:           13.954356

@<TRIPOS>MOLECULE
ZINC000151991096
 51 53 1 0 0
SMALL
USER_CHARGES


@<TRIPOS>ATOM
      1 C1         -8.3227    3.8794   49.6058 C.3     1  ZINC000151991096   -0.1500
      2 C2         -6.8596    3.4673   49.7804 C.3     1  ZINC000151991096   -0.1300
      3 C3         -6.7913    2.0053   50.2262 C.3     1  ZINC000151991096    0.1400
      4 H4         -7.2486    1.3718   49.4661 H       1  ZINC000151991096    0.1000
      5 N5         -7.5113    1.8466   51.4920 N.am    1  ZINC000151991096   -0.7200
      6 C6         -7.8735    0.6183   51.9120 C.2     1  ZINC000151991096    0.5600
      7 O7         -7.6039   -0.3581   51.2394 O.2     1  ZINC000151991096   -0.5300
      8 C8         -8.5975    0.4583   53.1883 C.ar    1  ZINC000151991096   -0.1700
      9 C9         -7.9899    0.8316   54.3899 C.ar    1  ZINC000151991096   -0.0500
     10 C10        -8.6688    0.6813   55.5784 C.ar    1  ZINC000151991096   -0.1600
     11 C11        -9.9569    0.1588   55.5839 C.ar    1  ZINC000151991096    0.1600
     12 O12       -10.6228    0.0126   56.7573 O.3     1  ZINC000151991096   -0.3000
     13 C13       -10.5300   -1.2595   57.4018 C.3     1  ZINC000151991096    0.0900
     14 C14        -9.4935   -1.1949   58.4937 C.ar    1  ZINC000151991096   -0.0500
     15 C15        -8.1880   -1.5532   58.2298 C.ar    1  ZINC000151991096   -0.1000
     16 C16        -7.2350   -1.4945   59.2315 C.ar    1  ZINC000151991096   -0.0900
     17 C17        -7.5839   -1.0770   60.5034 C.ar    1  ZINC000151991096   -0.1200
     18 C18        -8.8861   -0.7158   60.7813 C.ar    1  ZINC000151991096   -0.0700
     19 C19        -9.8514   -0.7667   59.7740 C.ar    1  ZINC000151991096   -0.0200
     20 C20       -11.2049   -0.3930   60.0552 C.1     1  ZINC000151991096    0.2400
     21 N21       -12.2786   -0.0967   60.2784 N.1     1  ZINC000151991096   -0.4000
     22 C22       -10.5647   -0.2138   54.3908 C.ar    1  ZINC000151991096   -0.2200
     23 C23        -9.8945   -0.0616   53.1976 C.ar    1  ZINC000151991096   -0.0100
     24 C24        -5.3288    1.5981   50.4168 C.3     1  ZINC000151991096    0.0700
     25 H25        -5.2478    0.5114   50.4408 H       1  ZINC000151991096    0.1000
     26 C26        -4.7870    2.1929   51.7343 C.3     1  ZINC000151991096   -0.1500
     27 C27        -3.3440    2.6093   51.3391 C.3     1  ZINC000151991096   -0.1600
     28 C28        -3.5543    3.0358   49.8645 C.3     1  ZINC000151991096    0.0500
     29 O29        -4.5353    2.1209   49.3450 O.3     1  ZINC000151991096   -0.3700
     30 H30        -8.8484    3.7636   50.5537 H       1  ZINC000151991096    0.0500
     31 H31        -8.3714    4.9209   49.2882 H       1  ZINC000151991096    0.0500
     32 H32        -8.7907    3.2472   48.8513 H       1  ZINC000151991096    0.0600
     33 H33        -6.3340    3.5830   48.8325 H       1  ZINC000151991096    0.0700
     34 H34        -6.3916    4.0995   50.5350 H       1  ZINC000151991096    0.0700
     35 H35        -7.7275    2.6257   52.0281 H       1  ZINC000151991096    0.4000
     36 H36        -6.9890    1.2373   54.3865 H       1  ZINC000151991096    0.1300
     37 H37        -8.1998    0.9693   56.5077 H       1  ZINC000151991096    0.1400
     38 H38       -11.4966   -1.5196   57.8332 H       1  ZINC000151991096    0.0800
     39 H39       -10.2423   -2.0163   56.6720 H       1  ZINC000151991096    0.0800
     40 H40        -7.9091   -1.8807   57.2392 H       1  ZINC000151991096    0.1400
     41 H41        -6.2142   -1.7762   59.0192 H       1  ZINC000151991096    0.1400
     42 H42        -6.8352   -1.0343   61.2806 H       1  ZINC000151991096    0.1400
     43 H43        -9.1572   -0.3904   61.7749 H       1  ZINC000151991096    0.1400
     44 H44       -11.5656   -0.6196   54.3992 H       1  ZINC000151991096    0.1300
     45 H45       -10.3676   -0.3510   52.2708 H       1  ZINC000151991096    0.1400
     46 H46        -5.3720    3.0612   52.0375 H       1  ZINC000151991096    0.0800
     47 H47        -4.7713    1.4399   52.5224 H       1  ZINC000151991096    0.0900
     48 H48        -2.9970    3.4467   51.9445 H       1  ZINC000151991096    0.0800
     49 H49        -2.6581    1.7651   51.4099 H       1  ZINC000151991096    0.0800
     50 H50        -3.9271    4.0589   49.8160 H       1  ZINC000151991096    0.0600
     51 H51        -2.6217    2.9454   49.3076 H       1  ZINC000151991096    0.0900
@<TRIPOS>BOND
     1     1     2    1
     2     1    30    1
     3     1    31    1
     4     1    32    1
     5     2     3    1
     6     2    33    1
     7     2    34    1
     8     3     4    1
     9     3     5    1
    10     3    24    1
    11     5     6   am
    12     5    35    1
    13     6     7    2
    14     6     8    1
    15     8    23   ar
    16     8     9   ar
    17     9    10   ar
    18     9    36    1
    19    10    11   ar
    20    10    37    1
    21    11    12    1
    22    11    22   ar
    23    12    13    1
    24    13    14    1
    25    13    38    1
    26    13    39    1
    27    14    19   ar
    28    14    15   ar
    29    15    16   ar
    30    15    40    1
    31    16    17   ar
    32    16    41    1
    33    17    18   ar
    34    17    42    1
    35    18    19   ar
    36    18    43    1
    37    19    20    1
    38    20    21    3
    39    22    23   ar
    40    22    44    1
    41    23    45    1
    42    24    25    1
    43    24    29    1
    44    24    26    1
    45    26    27    1
    46    26    46    1
    47    26    47    1
    48    27    28    1
    49    27    48    1
    50    27    49    1
    51    28    29    1
    52    28    50    1
    53    28    51    1
@<TRIPOS>SUBSTRUCTURE
     1 ZINC000151991096        1 TEMP              0 ****  ****    0 ROOT


##########                                Name:    ZINC001041713551
##########                DOCK_Rotatable_Bonds:                  10
##########                         Heavy_Atoms:                  22
##########                    Molecular_Weight:             330.448
##########                DOCK_Rotatable_Bonds:                  10
##########                       Formal_Charge:          -0.0100006
##########                     HBond_Acceptors:                   7
##########                        HBond_Donors:                   2
##########                         Heavy_Atoms:                  22
##########                          Grid_Score:          -31.578264
##########                     Grid_vdw_energy:          -29.768097
##########                      Grid_es_energy:           -1.810168
##########           Internal_energy_repulsive:            6.711572

@<TRIPOS>MOLECULE
ZINC001041713551
 48 49 1 0 0
SMALL
USER_CHARGES


@<TRIPOS>ATOM
      1 C1        -13.6795    2.1789   49.4138 C.3     1  ZINC001041713551   -0.1500
      2 C2        -14.3201    1.6531   50.7000 C.3     1  ZINC001041713551   -0.1100
      3 C3        -13.4251    0.5731   51.3110 C.3     1  ZINC001041713551   -0.1000
      4 S4        -11.7981    1.2797   51.6908 S.3     1  ZINC001041713551   -0.1800
      5 C5        -10.8662   -0.1495   52.3069 C.3     1  ZINC001041713551   -0.1300
      6 C6         -9.4455    0.2630   52.5940 C.2     1  ZINC001041713551    0.5300
      7 O7         -8.7748   -0.3763   53.3765 O.2     1  ZINC001041713551   -0.5100
      8 N8         -8.9204    1.3426   51.9815 N.am    1  ZINC001041713551   -0.7300
      9 C9         -7.5387    1.7427   52.2594 C.3     1  ZINC001041713551    0.1000
     10 C10        -6.6471    1.3504   51.0796 C.3     1  ZINC001041713551    0.0900
     11 O11        -7.0421    0.1211   50.4674 O.3     1  ZINC001041713551   -0.5200
     12 C12        -6.4049    2.4945   50.0784 C.3     1  ZINC001041713551    0.0900
     13 N13        -5.0032    2.0342   50.0451 N.am    1  ZINC001041713551   -0.6400
     14 C14        -4.0001    2.1253   49.1495 C.2     1  ZINC001041713551    0.5500
     15 O15        -4.1790    2.6965   48.0948 O.2     1  ZINC001041713551   -0.5100
     16 C16        -2.6563    1.5173   49.4588 C.3     1  ZINC001041713551    0.0800
     17 H17        -2.7801    0.7096   50.1801 H       1  ZINC001041713551    0.0800
     18 C18        -1.7340    2.5890   50.0458 C.3     1  ZINC001041713551   -0.1500
     19 C19        -0.3525    1.9785   50.3013 C.3     1  ZINC001041713551   -0.1200
     20 C20         0.1885    1.4006   48.9899 C.3     1  ZINC001041713551   -0.1600
     21 C21        -0.8080    0.3749   48.4437 C.3     1  ZINC001041713551    0.0600
     22 O22        -2.0796    0.9998   48.2581 O.3     1  ZINC001041713551   -0.3600
     23 C23        -5.1408    1.4341   51.3864 C.3     1  ZINC001041713551    0.1200
     24 H24       -13.5630    1.3594   48.7046 H       1  ZINC001041713551    0.0600
     25 H25       -14.3171    2.9484   48.9786 H       1  ZINC001041713551    0.0600
     26 H26       -12.7018    2.6035   49.6421 H       1  ZINC001041713551    0.0600
     27 H27       -14.4364    2.4726   51.4092 H       1  ZINC001041713551    0.0700
     28 H28       -15.2977    1.2286   50.4717 H       1  ZINC001041713551    0.0700
     29 H29       -13.8814    0.1985   52.2272 H       1  ZINC001041713551    0.0800
     30 H30       -13.3086   -0.2463   50.6017 H       1  ZINC001041713551    0.0800
     31 H31       -11.3296   -0.5182   53.2221 H       1  ZINC001041713551    0.1100
     32 H32       -10.8706   -0.9379   51.5543 H       1  ZINC001041713551    0.1100
     33 H33        -9.4573    1.8548   51.3567 H       1  ZINC001041713551    0.4000
     34 H34        -7.4953    2.8221   52.4046 H       1  ZINC001041713551    0.0900
     35 H35        -7.1895    1.2404   53.1615 H       1  ZINC001041713551    0.0900
     36 H36        -6.5797   -0.0727   49.6404 H       1  ZINC001041713551    0.3800
     37 H37        -6.9312    2.3690   49.1321 H       1  ZINC001041713551    0.0900
     38 H38        -6.5309    3.4883   50.5080 H       1  ZINC001041713551    0.1000
     39 H39        -1.6422    3.4160   49.3417 H       1  ZINC001041713551    0.0800
     40 H40        -2.1505    2.9535   50.9849 H       1  ZINC001041713551    0.0800
     41 H41         0.3251    2.7501   50.6668 H       1  ZINC001041713551    0.0700
     42 H42        -0.4365    1.1839   51.0427 H       1  ZINC001041713551    0.0700
     43 H43         0.3192    2.2036   48.2645 H       1  ZINC001041713551    0.0700
     44 H44         1.1470    0.9152   49.1739 H       1  ZINC001041713551    0.0800
     45 H45        -0.4484   -0.0085   47.4888 H       1  ZINC001041713551    0.1000
     46 H46        -0.9075   -0.4480   49.1516 H       1  ZINC001041713551    0.0500
     47 H47        -4.8955    2.1165   52.2002 H       1  ZINC001041713551    0.1100
     48 H48        -4.6578    0.4619   51.4844 H       1  ZINC001041713551    0.1000
@<TRIPOS>BOND
     1     1     2    1
     2     1    24    1
     3     1    25    1
     4     1    26    1
     5     2     3    1
     6     2    27    1
     7     2    28    1
     8     3     4    1
     9     3    29    1
    10     3    30    1
    11     4     5    1
    12     5     6    1
    13     5    31    1
    14     5    32    1
    15     6     7    2
    16     6     8   am
    17     8     9    1
    18     8    33    1
    19     9    10    1
    20     9    34    1
    21     9    35    1
    22    10    23    1
    23    10    11    1
    24    10    12    1
    25    11    36    1
    26    12    13    1
    27    12    37    1
    28    12    38    1
    29    13    14   am
    30    13    23    1
    31    14    15    2
    32    14    16    1
    33    16    17    1
    34    16    22    1
    35    16    18    1
    36    18    19    1
    37    18    39    1
    38    18    40    1
    39    19    20    1
    40    19    41    1
    41    19    42    1
    42    20    21    1
    43    20    43    1
    44    20    44    1
    45    21    22    1
    46    21    45    1
    47    21    46    1
    48    23    47    1
    49    23    48    1
@<TRIPOS>SUBSTRUCTURE
     1 ZINC001041713551        1 TEMP              0 ****  ****    0 ROOT


##########                                Name:    ZINC000848949366
##########                DOCK_Rotatable_Bonds:                   8
##########                         Heavy_Atoms:                  25
##########                    Molecular_Weight:             368.773
##########                DOCK_Rotatable_Bonds:                   8
##########                       Formal_Charge:          0.00999947
##########                     HBond_Acceptors:                   9
##########                        HBond_Donors:                   3
##########                         Heavy_Atoms:                  25
##########                          Grid_Score:          -31.563549
##########                     Grid_vdw_energy:          -30.587379
##########                      Grid_es_energy:           -0.976169
##########           Internal_energy_repulsive:            9.401389

@<TRIPOS>MOLECULE
ZINC000848949366
 42 43 1 0 0
SMALL
USER_CHARGES


@<TRIPOS>ATOM
      1 C1         -5.9008    3.0588   56.1547 C.3     1  ZINC000848949366   -0.1500
      2 C2         -7.2721    2.4290   56.4075 C.3     1  ZINC000848949366    0.0600
      3 O3         -7.1061    1.0585   56.7761 O.3     1  ZINC000848949366   -0.3500
      4 C4         -8.1511    0.4558   57.3811 C.2     1  ZINC000848949366    0.5400
      5 O5         -9.1016    1.1171   57.7550 O.2     1  ZINC000848949366   -0.4800
      6 C6         -8.1416   -0.9446   57.5803 C.2     1  ZINC000848949366   -0.2300
      7 C7         -8.9528   -1.7565   56.8687 C.2     1  ZINC000848949366    0.2000
      8 C8         -9.8842   -1.1612   55.8444 C.3     1  ZINC000848949366    0.1000
      9 O9         -9.1296   -0.7935   54.6597 O.3     1  ZINC000848949366   -0.3500
     10 C10        -9.8241   -0.2718   53.6295 C.2     1  ZINC000848949366    0.5100
     11 O11       -11.0268   -0.4329   53.5639 O.2     1  ZINC000848949366   -0.4800
     12 C12        -9.1252    0.4941   52.5826 C.ar    1  ZINC000848949366   -0.1600
     13 C13        -7.9922   -0.0379   51.9608 C.ar    1  ZINC000848949366   -0.0300
     14 C14        -7.3431    0.6829   50.9828 C.ar    1  ZINC000848949366   -0.1300
     15 C15        -7.8086    1.9354   50.6117 C.ar    1  ZINC000848949366    0.0200
     16 Cl16       -6.9805    2.8332   49.3781 Cl      1  ZINC000848949366   -0.0500
     17 C17        -8.9284    2.4730   51.2184 C.ar    1  ZINC000848949366   -0.1500
     18 C18        -9.5969    1.7587   52.2003 C.ar    1  ZINC000848949366    0.1900
     19 O19       -10.6957    2.2847   52.7966 O.3     1  ZINC000848949366   -0.4700
     20 N20        -8.9423   -3.1084   57.0617 N.am    1  ZINC000848949366   -0.6400
     21 C21        -8.1504   -3.7258   57.9474 C.2     1  ZINC000848949366    0.7100
     22 O22        -8.2123   -4.9357   58.0480 O.2     1  ZINC000848949366   -0.5600
     23 N23        -7.2868   -3.0498   58.7307 N.am    1  ZINC000848949366   -0.7100
     24 C24        -7.2166   -1.5852   58.5951 C.3     1  ZINC000848949366    0.2000
     25 H25        -6.1907   -1.3203   58.3393 H       1  ZINC000848949366    0.0900
     26 C26        -7.5318   -0.9696   59.9598 C.3     1  ZINC000848949366   -0.1700
     27 H27        -6.0274    4.1043   55.8735 H       1  ZINC000848949366    0.0800
     28 H28        -5.2996    2.9967   57.0618 H       1  ZINC000848949366    0.0700
     29 H29        -5.3985    2.5240   55.3485 H       1  ZINC000848949366    0.0700
     30 H30        -7.7744    2.9638   57.2137 H       1  ZINC000848949366    0.0700
     31 H31        -7.8733    2.4912   55.5004 H       1  ZINC000848949366    0.0700
     32 H32       -10.6461   -1.8934   55.5771 H       1  ZINC000848949366    0.1100
     33 H33       -10.3626   -0.2744   56.2603 H       1  ZINC000848949366    0.1000
     34 H34        -7.6258   -1.0126   52.2471 H       1  ZINC000848949366    0.1500
     35 H35        -6.4676    0.2709   50.5030 H       1  ZINC000848949366    0.1500
     36 H36        -9.2851    3.4491   50.9243 H       1  ZINC000848949366    0.1500
     37 H37       -11.0934    1.7103   53.4652 H       1  ZINC000848949366    0.4000
     38 H38        -9.5424   -3.6517   56.5274 H       1  ZINC000848949366    0.4300
     39 H39        -6.7225   -3.5174   59.3662 H       1  ZINC000848949366    0.4400
     40 H40        -6.8022   -1.3156   60.6919 H       1  ZINC000848949366    0.0700
     41 H41        -7.4865    0.1171   59.8873 H       1  ZINC000848949366    0.0700
     42 H42        -8.5315   -1.2715   60.2724 H       1  ZINC000848949366    0.0700
@<TRIPOS>BOND
     1     1     2    1
     2     1    27    1
     3     1    28    1
     4     1    29    1
     5     2     3    1
     6     2    30    1
     7     2    31    1
     8     3     4    1
     9     4     5    2
    10     4     6    1
    11     6    24    1
    12     6     7    2
    13     7     8    1
    14     7    20    1
    15     8     9    1
    16     8    32    1
    17     8    33    1
    18     9    10    1
    19    10    11    2
    20    10    12    1
    21    12    18   ar
    22    12    13   ar
    23    13    14   ar
    24    13    34    1
    25    14    15   ar
    26    14    35    1
    27    15    16    1
    28    15    17   ar
    29    17    18   ar
    30    17    36    1
    31    18    19    1
    32    19    37    1
    33    20    21   am
    34    20    38    1
    35    21    22    2
    36    21    23   am
    37    23    24    1
    38    23    39    1
    39    24    25    1
    40    24    26    1
    41    26    40    1
    42    26    41    1
    43    26    42    1
@<TRIPOS>SUBSTRUCTURE
     1 ZINC000848949366        1 TEMP              0 ****  ****    0 ROOT


##########                                Name:    ZINC000439870054
##########                DOCK_Rotatable_Bonds:                   5
##########                         Heavy_Atoms:                  27
##########                    Molecular_Weight:             421.974
##########                DOCK_Rotatable_Bonds:                   5
##########                       Formal_Charge:           0.0200003
##########                     HBond_Acceptors:                   9
##########                        HBond_Donors:                   0
##########                         Heavy_Atoms:                  27
##########                          Grid_Score:          -31.514360
##########                     Grid_vdw_energy:          -29.498566
##########                      Grid_es_energy:           -2.015794
##########           Internal_energy_repulsive:           62.639912

@<TRIPOS>MOLECULE
ZINC000439870054
 47 50 1 0 0
SMALL
USER_CHARGES


@<TRIPOS>ATOM
      1 C1        -10.5212    1.4976   62.3090 C.3     1  ZINC000439870054   -0.1400
      2 C2         -9.1171    1.0993   61.8500 C.3     1  ZINC000439870054    0.0000
      3 C3         -8.4383    0.2724   62.9440 C.3     1  ZINC000439870054   -0.1400
      4 C4         -9.2144    0.2803   60.5887 C.2     1  ZINC000439870054    0.1900
      5 N5        -10.0260   -0.7231   60.3744 N.2     1  ZINC000439870054   -0.2900
      6 N6         -9.8362   -1.1910   59.1881 N.2     1  ZINC000439870054   -0.2700
      7 C7         -8.9002   -0.5114   58.6009 C.2     1  ZINC000439870054    0.1600
      8 C8         -8.3269   -0.6962   57.2165 C.3     1  ZINC000439870054    0.2400
      9 H9         -7.7254   -1.6045   57.1812 H       1  ZINC000439870054    0.1100
     10 C10        -9.4582   -0.7793   56.1898 C.3     1  ZINC000439870054   -0.1300
     11 N11        -7.4799    0.4798   56.9410 N.am    1  ZINC000439870054   -0.6300
     12 C12        -7.5180    1.0960   55.7430 C.2     1  ZINC000439870054    0.5300
     13 O13        -8.2563    0.6849   54.8729 O.2     1  ZINC000439870054   -0.4900
     14 C14        -6.6435    2.2957   55.4846 C.3     1  ZINC000439870054   -0.0700
     15 C15        -6.6645    2.6253   54.0141 C.2     1  ZINC000439870054    0.0900
     16 C16        -7.6616    3.3184   53.4568 C.2     1  ZINC000439870054   -0.2400
     17 S17        -7.3197    3.4933   51.7368 S.3     1  ZINC000439870054    0.1300
     18 C18        -5.8230    2.5879   51.9468 C.2     1  ZINC000439870054    0.1400
     19 C19        -4.8627    2.2665   50.8799 C.2     1  ZINC000439870054   -0.1300
     20 C20        -4.9754    2.6464   49.5884 C.2     1  ZINC000439870054   -0.1000
     21 C21        -3.9480    2.2244   48.7726 C.2     1  ZINC000439870054   -0.1200
     22 C22        -2.9984    1.5049   49.3828 C.2     1  ZINC000439870054   -0.1500
     23 Cl23       -1.5924    0.8450   48.6072 Cl      1  ZINC000439870054    0.0000
     24 S24        -3.3858    1.3344   51.0896 S.3     1  ZINC000439870054    0.2500
     25 N25        -5.7007    2.2533   53.2022 N.2     1  ZINC000439870054   -0.4400
     26 C26        -6.5929    0.9609   58.0110 C.3     1  ZINC000439870054    0.0900
     27 C27        -7.4420    1.4353   59.1962 C.3     1  ZINC000439870054    0.0900
     28 N28        -8.4856    0.4476   59.4673 N.pl3   1  ZINC000439870054   -0.4700
     29 H29       -10.4509    2.0900   63.2213 H       1  ZINC000439870054    0.0700
     30 H30       -11.0048    2.0867   61.5296 H       1  ZINC000439870054    0.0500
     31 H31       -11.1083    0.6000   62.5030 H       1  ZINC000439870054    0.0700
     32 H32        -8.5300    1.9969   61.6560 H       1  ZINC000439870054    0.0800
     33 H33        -7.4380   -0.0114   62.6170 H       1  ZINC000439870054    0.0500
     34 H34        -8.3680    0.8648   63.8562 H       1  ZINC000439870054    0.0700
     35 H35        -9.0255   -0.6251   63.1380 H       1  ZINC000439870054    0.0700
     36 H36        -9.9509    0.1899   56.1127 H       1  ZINC000439870054    0.0600
     37 H37        -9.0479   -1.0566   55.2187 H       1  ZINC000439870054    0.0900
     38 H38       -10.1818   -1.5305   56.5063 H       1  ZINC000439870054    0.0700
     39 H39        -7.0175    3.1472   56.0531 H       1  ZINC000439870054    0.1100
     40 H40        -5.6218    2.0736   55.7925 H       1  ZINC000439870054    0.1200
     41 H41        -8.5287    3.7048   53.9721 H       1  ZINC000439870054    0.1800
     42 H42        -5.8051    3.2338   49.2241 H       1  ZINC000439870054    0.1500
     43 H43        -3.9118    2.4568   47.7185 H       1  ZINC000439870054    0.1600
     44 H44        -5.9385    0.1509   58.3331 H       1  ZINC000439870054    0.0900
     45 H45        -5.9909    1.7901   57.6394 H       1  ZINC000439870054    0.1200
     46 H46        -6.8082    1.5497   60.0757 H       1  ZINC000439870054    0.1100
     47 H47        -7.9050    2.3917   58.9530 H       1  ZINC000439870054    0.0900
@<TRIPOS>BOND
     1     1     2    1
     2     1    29    1
     3     1    30    1
     4     1    31    1
     5     2     3    1
     6     2     4    1
     7     2    32    1
     8     3    33    1
     9     3    34    1
    10     3    35    1
    11     4    28    1
    12     4     5    2
    13     5     6    1
    14     6     7    2
    15     7    28    1
    16     7     8    1
    17     8     9    1
    18     8    10    1
    19     8    11    1
    20    10    36    1
    21    10    37    1
    22    10    38    1
    23    11    12   am
    24    11    26    1
    25    12    13    2
    26    12    14    1
    27    14    15    1
    28    14    39    1
    29    14    40    1
    30    15    25    1
    31    15    16    2
    32    16    17    1
    33    16    41    1
    34    17    18    1
    35    18    19    1
    36    18    25    2
    37    19    24    1
    38    19    20    2
    39    20    21    1
    40    20    42    1
    41    21    22    2
    42    21    43    1
    43    22    23    1
    44    22    24    1
    45    26    27    1
    46    26    44    1
    47    26    45    1
    48    27    28    1
    49    27    46    1
    50    27    47    1
@<TRIPOS>SUBSTRUCTURE
     1 ZINC000439870054        1 TEMP              0 ****  ****    0 ROOT


##########                                Name:    ZINC000442864105
##########                DOCK_Rotatable_Bonds:                   7
##########                         Heavy_Atoms:                  30
##########                    Molecular_Weight:              414.39
##########                DOCK_Rotatable_Bonds:                   7
##########                       Formal_Charge:           0.0200001
##########                     HBond_Acceptors:                  10
##########                        HBond_Donors:                   2
##########                         Heavy_Atoms:                  30
##########                          Grid_Score:          -31.508631
##########                     Grid_vdw_energy:          -30.645578
##########                      Grid_es_energy:           -0.863052
##########           Internal_energy_repulsive:           11.038678

@<TRIPOS>MOLECULE
ZINC000442864105
 47 50 1 0 0
SMALL
USER_CHARGES


@<TRIPOS>ATOM
      1 C1         -6.6022    3.3065   55.1429 C.3     1  ZINC000442864105    0.0800
      2 N2         -7.4477    2.2232   54.6351 N.pl3   1  ZINC000442864105   -0.4900
      3 C3         -8.5071    1.6710   55.3057 C.2     1  ZINC000442864105    0.0300
      4 C4         -9.0653    0.7039   54.5617 C.2     1  ZINC000442864105   -0.1900
      5 C5         -8.3023    0.6294   53.3125 C.ar    1  ZINC000442864105   -0.1600
      6 C6         -8.3960   -0.1623   52.1661 C.ar    1  ZINC000442864105   -0.0200
      7 C7         -7.5094    0.0149   51.1428 C.ar    1  ZINC000442864105   -0.2100
      8 C8         -6.5095    0.9820   51.2337 C.ar    1  ZINC000442864105    0.2400
      9 N9         -5.6096    1.1510   50.1773 N.pl3   1  ZINC000442864105   -0.7400
     10 C10        -5.1577    2.4946   49.8078 C.3     1  ZINC000442864105    0.1100
     11 C11        -3.6559    2.5655   49.9110 C.2     1  ZINC000442864105    0.5100
     12 O12        -3.1250    3.5600   50.3586 O.2     1  ZINC000442864105   -0.5100
     13 N13        -2.9026    1.5239   49.5060 N.am    1  ZINC000442864105   -0.6600
     14 C14        -1.5077    1.5897   49.6018 C.ar    1  ZINC000442864105    0.1600
     15 C15        -0.9021    1.7451   50.8400 C.ar    1  ZINC000442864105   -0.0700
     16 C16         0.4754    1.8098   50.9322 C.ar    1  ZINC000442864105   -0.1600
     17 C17         1.1311    1.9785   52.2785 C.3     1  ZINC000442864105    0.5100
     18 F18         2.0602    3.0226   52.2172 F       1  ZINC000442864105   -0.1700
     19 F19         0.1572    2.2766   53.2375 F       1  ZINC000442864105   -0.1700
     20 F20         1.7848    0.7928   52.6307 F       1  ZINC000442864105   -0.1700
     21 C21         1.2537    1.7199   49.7927 C.ar    1  ZINC000442864105   -0.0600
     22 C22         0.6587    1.5655   48.5548 C.ar    1  ZINC000442864105   -0.1100
     23 C23        -0.7224    1.4937   48.4533 C.ar    1  ZINC000442864105    0.1500
     24 N24        -1.3283    1.3371   47.1982 N.pl3   1  ZINC000442864105   -0.3300
     25 C25        -2.3595    2.0493   46.7047 C.2     1  ZINC000442864105    0.2800
     26 N26        -2.6275    1.5974   45.5061 N.2     1  ZINC000442864105   -0.5300
     27 C27        -1.7944    0.6033   45.2009 C.2     1  ZINC000442864105    0.2300
     28 N28        -0.9766    0.4105   46.2030 N.2     1  ZINC000442864105   -0.3400
     29 C29        -6.4012    1.7767   52.3620 C.ar    1  ZINC000442864105   -0.2100
     30 C30        -7.2998    1.6118   53.4100 C.ar    1  ZINC000442864105    0.1500
     31 H31        -7.0253    4.2666   54.8475 H       1  ZINC000442864105    0.0700
     32 H32        -6.5535    3.2502   56.2303 H       1  ZINC000442864105    0.0800
     33 H33        -5.5987    3.2088   54.7287 H       1  ZINC000442864105    0.0800
     34 H34        -8.8432    1.9699   56.2876 H       1  ZINC000442864105    0.1700
     35 H35        -9.9156    0.0954   54.8323 H       1  ZINC000442864105    0.1400
     36 H36        -9.1680   -0.9138   52.0892 H       1  ZINC000442864105    0.1200
     37 H37        -7.5830   -0.5985   50.2570 H       1  ZINC000442864105    0.1200
     38 H38        -5.2844    0.3785   49.6891 H       1  ZINC000442864105    0.4100
     39 H39        -5.4622    2.7116   48.7840 H       1  ZINC000442864105    0.1000
     40 H40        -5.6031    3.2260   50.4822 H       1  ZINC000442864105    0.1000
     41 H41        -3.3272    0.7285   49.1482 H       1  ZINC000442864105    0.4300
     42 H42        -1.5069    1.8156   51.7320 H       1  ZINC000442864105    0.1700
     43 H43         2.3296    1.7707   49.8703 H       1  ZINC000442864105    0.1500
     44 H44         1.2696    1.4959   47.6669 H       1  ZINC000442864105    0.1500
     45 H45        -2.8755    2.8524   47.2100 H       1  ZINC000442864105    0.2300
     46 H46        -1.7920    0.0492   44.2739 H       1  ZINC000442864105    0.2300
     47 H47        -5.6244    2.5242   52.4262 H       1  ZINC000442864105    0.1200
@<TRIPOS>BOND
     1     1     2    1
     2     1    31    1
     3     1    32    1
     4     1    33    1
     5     2    30    1
     6     2     3    1
     7     3     4    2
     8     3    34    1
     9     4     5    1
    10     4    35    1
    11     5    30   ar
    12     5     6   ar
    13     6     7   ar
    14     6    36    1
    15     7     8   ar
    16     7    37    1
    17     8     9    1
    18     8    29   ar
    19     9    10    1
    20     9    38    1
    21    10    11    1
    22    10    39    1
    23    10    40    1
    24    11    12    2
    25    11    13   am
    26    13    14    1
    27    13    41    1
    28    14    23   ar
    29    14    15   ar
    30    15    16   ar
    31    15    42    1
    32    16    17    1
    33    16    21   ar
    34    17    18    1
    35    17    19    1
    36    17    20    1
    37    21    22   ar
    38    21    43    1
    39    22    23   ar
    40    22    44    1
    41    23    24    1
    42    24    28    1
    43    24    25    1
    44    25    26    2
    45    25    45    1
    46    26    27    1
    47    27    28    2
    48    27    46    1
    49    29    30   ar
    50    29    47    1
@<TRIPOS>SUBSTRUCTURE
     1 ZINC000442864105        1 TEMP              0 ****  ****    0 ROOT


##########                                Name:    ZINC000894043060
##########                DOCK_Rotatable_Bonds:                  11
##########                         Heavy_Atoms:                  26
##########                    Molecular_Weight:             396.812
##########                DOCK_Rotatable_Bonds:                  11
##########                       Formal_Charge:          -0.0199999
##########                     HBond_Acceptors:                   9
##########                        HBond_Donors:                   2
##########                         Heavy_Atoms:                  26
##########                          Grid_Score:          -31.497021
##########                     Grid_vdw_energy:          -28.420456
##########                      Grid_es_energy:           -3.076566
##########           Internal_energy_repulsive:           13.493717

@<TRIPOS>MOLECULE
ZINC000894043060
 47 47 1 0 0
SMALL
USER_CHARGES


@<TRIPOS>ATOM
      1 C1         -8.8561    0.6628   52.2879 C.3     1  ZINC000894043060   -0.1700
      2 C2         -7.9608    1.4710   51.3466 C.3     1  ZINC000894043060    0.1000
      3 H3         -8.1260    1.1455   50.3195 H       1  ZINC000894043060    0.1100
      4 N4         -6.5565    1.2587   51.7061 N.am    1  ZINC000894043060   -0.7300
      5 C5         -5.5818    1.5699   50.8290 C.2     1  ZINC000894043060    0.5200
      6 O6         -5.8672    2.0244   49.7413 O.2     1  ZINC000894043060   -0.5200
      7 C7         -4.1373    1.3532   51.1996 C.3     1  ZINC000894043060   -0.1400
      8 C8         -3.2718    2.4179   50.5226 C.3     1  ZINC000894043060   -0.0200
      9 C9         -2.0546    2.7189   51.3994 C.3     1  ZINC000894043060   -0.1400
     10 C10        -2.4546    3.6564   52.5094 C.2     1  ZINC000894043060    0.5200
     11 O11        -2.7989    4.7902   52.2510 O.2     1  ZINC000894043060   -0.5200
     12 N12        -2.4296    3.2348   53.7894 N.am    1  ZINC000894043060   -0.7300
     13 C13        -2.8201    4.1456   54.8683 C.3     1  ZINC000894043060    0.1000
     14 H14        -2.7324    5.1759   54.5236 H       1  ZINC000894043060    0.1200
     15 C15        -4.2685    3.8649   55.2736 C.3     1  ZINC000894043060   -0.1700
     16 C16        -1.9026    3.9312   56.0737 C.3     1  ZINC000894043060    0.2600
     17 F17        -0.5760    4.1688   55.6982 F       1  ZINC000894043060   -0.1900
     18 F18        -2.2629    4.8145   57.0969 F       1  ZINC000894043060   -0.2000
     19 C19        -2.8110    1.9116   49.1801 C.ar    1  ZINC000894043060   -0.0600
     20 C20        -1.8905    0.8827   49.1086 C.ar    1  ZINC000894043060   -0.1200
     21 C21        -1.4675    0.4179   47.8775 C.ar    1  ZINC000894043060   -0.1200
     22 C22        -1.9654    0.9826   46.7168 C.ar    1  ZINC000894043060   -0.0400
     23 Cl23       -1.4350    0.3990   45.1703 Cl      1  ZINC000894043060   -0.0800
     24 C24        -2.8867    2.0123   46.7891 C.ar    1  ZINC000894043060   -0.1100
     25 C25        -3.3132    2.4724   48.0206 C.ar    1  ZINC000894043060   -0.0400
     26 C26        -8.3001    2.9577   51.4713 C.3     1  ZINC000894043060    0.2600
     27 F27        -9.6317    3.1651   51.0959 F       1  ZINC000894043060   -0.2000
     28 F28        -8.1198    3.3675   52.7967 F       1  ZINC000894043060   -0.1900
     29 H29        -8.6909    0.9882   53.3150 H       1  ZINC000894043060    0.0600
     30 H30        -9.9008    0.8207   52.0203 H       1  ZINC000894043060    0.0800
     31 H31        -8.6144   -0.3963   52.1991 H       1  ZINC000894043060    0.0800
     32 H32        -6.3284    0.8941   52.5756 H       1  ZINC000894043060    0.4000
     33 H33        -4.0246    1.4273   52.2812 H       1  ZINC000894043060    0.1000
     34 H34        -3.8216    0.3640   50.8683 H       1  ZINC000894043060    0.1000
     35 H35        -3.8557    3.3283   50.3867 H       1  ZINC000894043060    0.1000
     36 H36        -1.6761    1.7904   51.8267 H       1  ZINC000894043060    0.1000
     37 H37        -1.2766    3.1838   50.7938 H       1  ZINC000894043060    0.1000
     38 H38        -2.1531    2.3283   53.9961 H       1  ZINC000894043060    0.4000
     39 H39        -4.3561    2.8345   55.6182 H       1  ZINC000894043060    0.0700
     40 H40        -4.5590    4.5425   56.0764 H       1  ZINC000894043060    0.0800
     41 H41        -4.9222    4.0175   54.4148 H       1  ZINC000894043060    0.0700
     42 H42        -2.0016    2.9051   56.4278 H       1  ZINC000894043060    0.1200
     43 H43        -1.5016    0.4423   50.0146 H       1  ZINC000894043060    0.1200
     44 H44        -0.7480   -0.3856   47.8217 H       1  ZINC000894043060    0.1300
     45 H45        -3.2755    2.4537   45.8833 H       1  ZINC000894043060    0.1300
     46 H46        -4.0325    3.2760   48.0771 H       1  ZINC000894043060    0.1300
     47 H47        -7.6447    3.5358   50.8199 H       1  ZINC000894043060    0.1100
@<TRIPOS>BOND
     1     1     2    1
     2     1    29    1
     3     1    30    1
     4     1    31    1
     5     2     3    1
     6     2     4    1
     7     2    26    1
     8     4     5   am
     9     4    32    1
    10     5     6    2
    11     5     7    1
    12     7     8    1
    13     7    33    1
    14     7    34    1
    15     8     9    1
    16     8    19    1
    17     8    35    1
    18     9    10    1
    19     9    36    1
    20     9    37    1
    21    10    11    2
    22    10    12   am
    23    12    13    1
    24    12    38    1
    25    13    14    1
    26    13    15    1
    27    13    16    1
    28    15    39    1
    29    15    40    1
    30    15    41    1
    31    16    17    1
    32    16    18    1
    33    16    42    1
    34    19    25   ar
    35    19    20   ar
    36    20    21   ar
    37    20    43    1
    38    21    22   ar
    39    21    44    1
    40    22    23    1
    41    22    24   ar
    42    24    25   ar
    43    24    45    1
    44    25    46    1
    45    26    27    1
    46    26    28    1
    47    26    47    1
@<TRIPOS>SUBSTRUCTURE
     1 ZINC000894043060        1 TEMP              0 ****  ****    0 ROOT


##########                                Name:    ZINC000654672208
##########                DOCK_Rotatable_Bonds:                   5
##########                         Heavy_Atoms:                  25
##########                    Molecular_Weight:             365.497
##########                DOCK_Rotatable_Bonds:                   5
##########                       Formal_Charge:           0.0100001
##########                     HBond_Acceptors:                   7
##########                        HBond_Donors:                   1
##########                         Heavy_Atoms:                  25
##########                          Grid_Score:          -31.489185
##########                     Grid_vdw_energy:          -30.738342
##########                      Grid_es_energy:           -0.750843
##########           Internal_energy_repulsive:           12.862166

@<TRIPOS>MOLECULE
ZINC000654672208
 52 54 1 0 0
SMALL
USER_CHARGES


@<TRIPOS>ATOM
      1 C1        -11.7308    4.3468   51.7357 C.3     1  ZINC000654672208   -0.1100
      2 C2        -10.4438    3.6470   51.3821 C.ar    1  ZINC000654672208   -0.1300
      3 C3         -9.5280    4.2495   50.5409 C.ar    1  ZINC000654672208    0.1000
      4 N4         -8.3994    3.6435   50.2273 N.ar    1  ZINC000654672208   -0.4700
      5 C5         -8.0998    2.4489   50.6983 C.ar    1  ZINC000654672208    0.1200
      6 C6         -6.7965    1.8002   50.3087 C.3     1  ZINC000654672208   -0.0900
      7 C7         -5.8179    2.8721   49.8247 C.3     1  ZINC000654672208    0.1500
      8 N8         -4.4834    2.2853   49.6796 N.am    1  ZINC000654672208   -0.7500
      9 C9         -3.4036    2.9437   50.1453 C.2     1  ZINC000654672208    0.7100
     10 O10        -3.5369    4.0247   50.6857 O.2     1  ZINC000654672208   -0.5800
     11 N11        -2.1759    2.4039   50.0119 N.am    1  ZINC000654672208   -0.6300
     12 C12        -0.9896    3.1101   50.5146 C.3     1  ZINC000654672208    0.1300
     13 C13         0.0285    3.2334   49.3767 C.3     1  ZINC000654672208   -0.1400
     14 C14         0.3198    1.8447   48.8047 C.3     1  ZINC000654672208   -0.1100
     15 C15        -0.9706    1.2465   48.2317 C.3     1  ZINC000654672208   -0.0600
     16 C16        -0.6668   -0.1375   47.6489 C.3     1  ZINC000654672208   -0.1200
     17 C17        -1.6537   -0.4151   46.4860 C.3     1  ZINC000654672208   -0.5800
     18 S18        -1.6701    1.2152   45.6368 S.o2    1  ZINC000654672208    2.3800
     19 O19        -0.4850    1.3639   44.8669 O.2     1  ZINC000654672208   -0.9300
     20 O20        -2.9405    1.4278   45.0369 O.2     1  ZINC000654672208   -0.9300
     21 C21        -1.5351    2.2072   47.1710 C.3     1  ZINC000654672208   -0.5800
     22 C22        -2.0000    1.0962   49.3667 C.3     1  ZINC000654672208    0.1200
     23 C23        -8.9670    1.7850   51.5454 C.ar    1  ZINC000654672208   -0.1200
     24 C24        -8.6165    0.4200   52.0795 C.3     1  ZINC000654672208   -0.1200
     25 C25       -10.1611    2.3926   51.9014 C.ar    1  ZINC000654672208   -0.0800
     26 H26       -11.5809    4.9537   52.6286 H       1  ZINC000654672208    0.0700
     27 H27       -12.0353    4.9873   50.9079 H       1  ZINC000654672208    0.0700
     28 H28       -12.5069    3.6056   51.9261 H       1  ZINC000654672208    0.0700
     29 H29        -9.7390    5.2279   50.1352 H       1  ZINC000654672208    0.1600
     30 H30        -6.3742    1.2859   51.1722 H       1  ZINC000654672208    0.0900
     31 H31        -6.9732    1.0816   49.5085 H       1  ZINC000654672208    0.0900
     32 H32        -6.1509    3.2600   48.8620 H       1  ZINC000654672208    0.0700
     33 H33        -5.7807    3.6845   50.5505 H       1  ZINC000654672208    0.0700
     34 H34        -4.3771    1.4230   49.2484 H       1  ZINC000654672208    0.3900
     35 H35        -1.2748    4.1040   50.8595 H       1  ZINC000654672208    0.1000
     36 H36        -0.5508    2.5470   51.3383 H       1  ZINC000654672208    0.0700
     37 H37        -0.3782    3.8719   48.5924 H       1  ZINC000654672208    0.0700
     38 H38         0.9510    3.6699   49.7597 H       1  ZINC000654672208    0.0800
     39 H39         1.0649    1.9266   48.0134 H       1  ZINC000654672208    0.0800
     40 H40         0.6997    1.1983   49.5959 H       1  ZINC000654672208    0.0800
     41 H41         0.3567   -0.1609   47.2744 H       1  ZINC000654672208    0.1000
     42 H42        -0.7892   -0.8957   48.4224 H       1  ZINC000654672208    0.1000
     43 H43        -1.2742   -1.1965   45.8276 H       1  ZINC000654672208    0.1400
     44 H44        -2.6436   -0.6702   46.8642 H       1  ZINC000654672208    0.1400
     45 H45        -2.5176    2.5687   47.4742 H       1  ZINC000654672208    0.1400
     46 H46        -0.8542    3.0448   47.0200 H       1  ZINC000654672208    0.1400
     47 H47        -1.6388    0.3690   50.0938 H       1  ZINC000654672208    0.0800
     48 H48        -2.9523    0.7624   48.9547 H       1  ZINC000654672208    0.0800
     49 H49        -8.0733    0.5259   53.0186 H       1  ZINC000654672208    0.0800
     50 H50        -9.5304   -0.1489   52.2505 H       1  ZINC000654672208    0.0700
     51 H51        -7.9923   -0.1040   51.3557 H       1  ZINC000654672208    0.0700
     52 H52       -10.8579    1.8977   52.5616 H       1  ZINC000654672208    0.1300
@<TRIPOS>BOND
     1     1     2    1
     2     1    26    1
     3     1    27    1
     4     1    28    1
     5     2    25   ar
     6     2     3   ar
     7     3     4   ar
     8     3    29    1
     9     4     5   ar
    10     5     6    1
    11     5    23   ar
    12     6     7    1
    13     6    30    1
    14     6    31    1
    15     7     8    1
    16     7    32    1
    17     7    33    1
    18     8     9   am
    19     8    34    1
    20     9    10    2
    21     9    11   am
    22    11    22    1
    23    11    12    1
    24    12    13    1
    25    12    35    1
    26    12    36    1
    27    13    14    1
    28    13    37    1
    29    13    38    1
    30    14    15    1
    31    14    39    1
    32    14    40    1
    33    15    21    1
    34    15    16    1
    35    15    22    1
    36    16    17    1
    37    16    41    1
    38    16    42    1
    39    17    18    1
    40    17    43    1
    41    17    44    1
    42    18    19    2
    43    18    20    2
    44    18    21    1
    45    21    45    1
    46    21    46    1
    47    22    47    1
    48    22    48    1
    49    23    24    1
    50    23    25   ar
    51    24    49    1
    52    24    50    1
    53    24    51    1
    54    25    52    1
@<TRIPOS>SUBSTRUCTURE
     1 ZINC000654672208        1 TEMP              0 ****  ****    0 ROOT


##########                                Name:    ZINC001284642199
##########                DOCK_Rotatable_Bonds:                   8
##########                         Heavy_Atoms:                  25
##########                    Molecular_Weight:             346.516
##########                DOCK_Rotatable_Bonds:                   8
##########                       Formal_Charge:         -3.8743e-07
##########                     HBond_Acceptors:                   5
##########                        HBond_Donors:                   2
##########                         Heavy_Atoms:                  25
##########                          Grid_Score:          -31.474239
##########                     Grid_vdw_energy:          -30.162834
##########                      Grid_es_energy:           -1.311406
##########           Internal_energy_repulsive:           19.819376

@<TRIPOS>MOLECULE
ZINC001284642199
 59 60 1 0 0
SMALL
USER_CHARGES


@<TRIPOS>ATOM
      1 C1         -1.0165    4.9945   44.0601 C.3     1  ZINC001284642199   -0.1100
      2 C2         -1.0528    3.6760   44.7891 C.ar    1  ZINC001284642199   -0.1900
      3 C3          0.1197    3.0125   45.1147 C.ar    1  ZINC001284642199    0.1500
      4 N4          0.0487    1.8569   45.7555 N.ar    1  ZINC001284642199   -0.4900
      5 C5         -1.1173    1.3371   46.0833 C.ar    1  ZINC001284642199    0.3100
      6 C6         -1.1536    0.0187   46.8124 C.3     1  ZINC001284642199    0.1300
      7 N7         -1.8319    0.1918   48.1038 N.3     1  ZINC001284642199   -0.6800
      8 C8         -0.8824    0.6049   49.1458 C.3     1  ZINC001284642199    0.0500
      9 C9         -1.0693    2.0937   49.4450 C.3     1  ZINC001284642199    0.1600
     10 H10        -1.2039    2.6379   48.5101 H       1  ZINC001284642199    0.1000
     11 N11        -2.2507    2.2772   50.2914 N.am    1  ZINC001284642199   -0.7200
     12 C12        -3.4564    2.4915   49.7284 C.2     1  ZINC001284642199    0.5200
     13 O13        -3.5635    2.5309   48.5210 O.2     1  ZINC001284642199   -0.5300
     14 C14        -4.6715    2.6821   50.5993 C.3     1  ZINC001284642199   -0.1100
     15 H15        -4.3594    2.8058   51.6363 H       1  ZINC001284642199    0.0900
     16 C16        -5.4347    3.9276   50.1443 C.3     1  ZINC001284642199   -0.1000
     17 C17        -6.6683    4.1211   51.0284 C.3     1  ZINC001284642199   -0.1100
     18 C18        -7.5767    2.8955   50.9118 C.3     1  ZINC001284642199   -0.0900
     19 H19        -7.8887    2.7718   49.8747 H       1  ZINC001284642199    0.0700
     20 C20        -8.8103    3.0890   51.7960 C.3     1  ZINC001284642199   -0.1500
     21 C21        -6.8134    1.6500   51.3667 C.3     1  ZINC001284642199   -0.1100
     22 C22        -5.5799    1.4564   50.4827 C.3     1  ZINC001284642199   -0.1100
     23 C23         0.1668    2.6269   50.1720 C.3     1  ZINC001284642199   -0.0800
     24 C24         1.3317    2.7345   49.1860 C.3     1  ZINC001284642199   -0.1400
     25 C25        -0.1395    4.0090   50.7524 C.3     1  ZINC001284642199   -0.1400
     26 C26         0.5443    1.6702   51.3049 C.3     1  ZINC001284642199   -0.1300
     27 N27        -2.2525    1.9371   45.7858 N.ar    1  ZINC001284642199   -0.5100
     28 C28        -2.2595    3.0980   45.1505 C.ar    1  ZINC001284642199    0.1500
     29 H29        -1.0389    4.8159   42.9850 H       1  ZINC001284642199    0.0800
     30 H30        -1.8814    5.5923   44.3472 H       1  ZINC001284642199    0.0700
     31 H31        -0.1029    5.5287   44.3206 H       1  ZINC001284642199    0.0700
     32 H32         1.0782    3.4328   44.8487 H       1  ZINC001284642199    0.1700
     33 H33        -0.1353   -0.3315   46.9808 H       1  ZINC001284642199    0.1000
     34 H34        -1.6950   -0.7131   46.2128 H       1  ZINC001284642199    0.0600
     35 H35        -2.3194   -0.6500   48.3720 H       1  ZINC001284642199    0.3400
     36 H36         0.1361    0.4287   48.7998 H       1  ZINC001284642199    0.0900
     37 H37        -1.0633    0.0268   50.0521 H       1  ZINC001284642199    0.0400
     38 H38        -2.1654    2.2445   51.2571 H       1  ZINC001284642199    0.3900
     39 H39        -5.7467    3.8040   49.1072 H       1  ZINC001284642199    0.0700
     40 H40        -4.7877    4.8009   50.2272 H       1  ZINC001284642199    0.0700
     41 H41        -7.2120    5.0085   50.7042 H       1  ZINC001284642199    0.0700
     42 H42        -6.3564    4.2449   52.0654 H       1  ZINC001284642199    0.0600
     43 H43        -9.3540    3.9763   51.4717 H       1  ZINC001284642199    0.0500
     44 H44        -9.4574    2.2158   51.7129 H       1  ZINC001284642199    0.0500
     45 H45        -8.4983    3.2126   52.8329 H       1  ZINC001284642199    0.0500
     46 H46        -6.5014    1.7737   52.4038 H       1  ZINC001284642199    0.0600
     47 H47        -7.4605    0.7768   51.2838 H       1  ZINC001284642199    0.0700
     48 H48        -5.8919    1.3327   49.4456 H       1  ZINC001284642199    0.0700
     49 H49        -5.0361    0.5691   50.8068 H       1  ZINC001284642199    0.0600
     50 H50         1.0627    3.4160   48.3789 H       1  ZINC001284642199    0.0600
     51 H51         2.2124    3.1142   49.7040 H       1  ZINC001284642199    0.0600
     52 H52         1.5499    1.7498   48.7725 H       1  ZINC001284642199    0.0500
     53 H53        -0.9693    3.9324   51.4550 H       1  ZINC001284642199    0.0600
     54 H54         0.7412    4.3888   51.2705 H       1  ZINC001284642199    0.0600
     55 H55        -0.4083    4.6905   49.9454 H       1  ZINC001284642199    0.0600
     56 H56         0.7625    0.6856   50.8915 H       1  ZINC001284642199    0.0500
     57 H57         1.4250    2.0501   51.8229 H       1  ZINC001284642199    0.0500
     58 H58        -0.2855    1.5936   52.0074 H       1  ZINC001284642199    0.0600
     59 H59        -3.1932    3.5862   44.9130 H       1  ZINC001284642199    0.1700
@<TRIPOS>BOND
     1     1     2    1
     2     1    29    1
     3     1    30    1
     4     1    31    1
     5     2    28   ar
     6     2     3   ar
     7     3     4   ar
     8     3    32    1
     9     4     5   ar
    10     5     6    1
    11     5    27   ar
    12     6     7    1
    13     6    33    1
    14     6    34    1
    15     7     8    1
    16     7    35    1
    17     8     9    1
    18     8    36    1
    19     8    37    1
    20     9    10    1
    21     9    11    1
    22     9    23    1
    23    11    12   am
    24    11    38    1
    25    12    13    2
    26    12    14    1
    27    14    15    1
    28    14    22    1
    29    14    16    1
    30    16    17    1
    31    16    39    1
    32    16    40    1
    33    17    18    1
    34    17    41    1
    35    17    42    1
    36    18    19    1
    37    18    20    1
    38    18    21    1
    39    20    43    1
    40    20    44    1
    41    20    45    1
    42    21    22    1
    43    21    46    1
    44    21    47    1
    45    22    48    1
    46    22    49    1
    47    23    24    1
    48    23    25    1
    49    23    26    1
    50    24    50    1
    51    24    51    1
    52    24    52    1
    53    25    53    1
    54    25    54    1
    55    25    55    1
    56    26    56    1
    57    26    57    1
    58    26    58    1
    59    27    28   ar
    60    28    59    1
@<TRIPOS>SUBSTRUCTURE
     1 ZINC001284642199        1 TEMP              0 ****  ****    0 ROOT


##########                                Name:    ZINC001386869844
##########                DOCK_Rotatable_Bonds:                   9
##########                         Heavy_Atoms:                  25
##########                    Molecular_Weight:             345.485
##########                DOCK_Rotatable_Bonds:                   9
##########                       Formal_Charge:          -0.0300003
##########                     HBond_Acceptors:                   5
##########                        HBond_Donors:                   2
##########                         Heavy_Atoms:                  25
##########                          Grid_Score:          -31.442085
##########                     Grid_vdw_energy:          -31.622892
##########                      Grid_es_energy:            0.180807
##########           Internal_energy_repulsive:           29.080048

@<TRIPOS>MOLECULE
ZINC001386869844
 56 58 1 0 0
SMALL
USER_CHARGES


@<TRIPOS>ATOM
      1 C1         -8.2181    2.7710   52.1410 C.3     1  ZINC001386869844    0.0600
      2 N2         -7.6290    1.6850   51.3537 N.am    1  ZINC001386869844   -0.6200
      3 C3         -6.6063    1.9813   50.3475 C.3     1  ZINC001386869844    0.1100
      4 C4         -5.2630    2.2188   51.0401 C.3     1  ZINC001386869844    0.1000
      5 N5         -4.1930    1.5954   50.2572 N.am    1  ZINC001386869844   -0.7300
      6 C6         -2.9552    2.1289   50.2630 C.2     1  ZINC001386869844    0.5200
      7 O7         -2.7285    3.1277   50.9124 O.2     1  ZINC001386869844   -0.5300
      8 C8         -1.8546    1.4877   49.4577 C.3     1  ZINC001386869844   -0.1300
      9 C9         -1.7234    2.2043   48.1123 C.3     1  ZINC001386869844   -0.0100
     10 C10        -3.1037    2.3292   47.4642 C.3     1  ZINC001386869844   -0.1500
     11 C11        -1.1353    3.5994   48.3328 C.3     1  ZINC001386869844   -0.1600
     12 C12        -0.7999    1.4008   47.1945 C.3     1  ZINC001386869844   -0.1500
     13 C13        -1.3261    1.0388   45.8042 C.3     1  ZINC001386869844   -0.1900
     14 C14        -1.1980   -0.0427   46.8799 C.3     1  ZINC001386869844   -0.1800
     15 C15        -8.0278    0.4135   51.5552 C.2     1  ZINC001386869844    0.5900
     16 O16        -7.5386   -0.4885   50.9011 O.2     1  ZINC001386869844   -0.5200
     17 C17        -9.0517    0.1170   52.5628 C.2     1  ZINC001386869844   -0.0600
     18 C18       -10.4182    0.2042   52.3869 C.2     1  ZINC001386869844   -0.0900
     19 C19       -11.0078   -0.1652   53.5931 C.2     1  ZINC001386869844   -0.1700
     20 C20       -10.0152   -0.4661   54.4721 C.2     1  ZINC001386869844    0.0500
     21 C21       -10.2576   -0.9079   55.8958 C.3     1  ZINC001386869844   -0.0600
     22 C22       -11.7009   -0.5542   56.2734 C.3     1  ZINC001386869844   -0.1100
     23 C23       -12.6539   -1.0705   55.1921 C.3     1  ZINC001386869844   -0.1200
     24 C24       -12.4793   -0.2369   53.9168 C.3     1  ZINC001386869844   -0.0500
     25 N25        -8.8242   -0.3050   53.8547 N.pl3   1  ZINC001386869844   -0.5400
     26 H26        -9.1574    3.0827   51.6843 H       1  ZINC001386869844    0.0600
     27 H27        -8.4059    2.4229   53.1568 H       1  ZINC001386869844    0.0800
     28 H28        -7.5294    3.6154   52.1679 H       1  ZINC001386869844    0.0900
     29 H29        -6.8916    2.8746   49.7918 H       1  ZINC001386869844    0.1000
     30 H30        -6.5174    1.1393   49.6610 H       1  ZINC001386869844    0.0900
     31 H31        -5.2860    1.7800   52.0376 H       1  ZINC001386869844    0.0700
     32 H32        -5.0789    3.2902   51.1184 H       1  ZINC001386869844    0.0700
     33 H33        -4.3754    0.7989   49.7345 H       1  ZINC001386869844    0.4000
     34 H34        -0.9140    1.5635   50.0030 H       1  ZINC001386869844    0.0900
     35 H35        -2.0928    0.4376   49.2883 H       1  ZINC001386869844    0.0900
     36 H36        -3.7616    2.9016   48.1181 H       1  ZINC001386869844    0.0800
     37 H37        -3.0102    2.8398   46.5057 H       1  ZINC001386869844    0.0500
     38 H38        -3.5227    1.3353   47.3071 H       1  ZINC001386869844    0.0500
     39 H39        -0.1520    3.5105   48.7945 H       1  ZINC001386869844    0.0500
     40 H40        -1.0418    4.1100   47.3743 H       1  ZINC001386869844    0.0500
     41 H41        -1.7933    4.1718   48.9867 H       1  ZINC001386869844    0.0800
     42 H42         0.2636    1.6203   47.2886 H       1  ZINC001386869844    0.1000
     43 H43        -2.3303    1.3730   45.5433 H       1  ZINC001386869844    0.1000
     44 H44        -0.6087    1.0200   44.9837 H       1  ZINC001386869844    0.0900
     45 H45        -0.3964   -0.7726   46.7667 H       1  ZINC001386869844    0.0900
     46 H46        -2.1178   -0.4198   47.3268 H       1  ZINC001386869844    0.0900
     47 H47       -10.9322    0.5027   51.4852 H       1  ZINC001386869844    0.1500
     48 H48       -10.1108   -1.9851   55.9759 H       1  ZINC001386869844    0.0800
     49 H49        -9.5668   -0.3922   56.5629 H       1  ZINC001386869844    0.0800
     50 H50       -11.9502   -1.0168   57.2283 H       1  ZINC001386869844    0.0700
     51 H51       -11.7994    0.5280   56.3576 H       1  ZINC001386869844    0.0700
     52 H52       -12.4281   -2.1150   54.9773 H       1  ZINC001386869844    0.0600
     53 H53       -13.6822   -0.9860   55.5436 H       1  ZINC001386869844    0.0700
     54 H54       -12.8689    0.7680   54.0789 H       1  ZINC001386869844    0.0700
     55 H55       -13.0138   -0.7100   53.0929 H       1  ZINC001386869844    0.0700
     56 H56        -7.9540   -0.4588   54.2548 H       1  ZINC001386869844    0.4200
@<TRIPOS>BOND
     1     1     2    1
     2     1    26    1
     3     1    27    1
     4     1    28    1
     5     2     3    1
     6     2    15   am
     7     3     4    1
     8     3    29    1
     9     3    30    1
    10     4     5    1
    11     4    31    1
    12     4    32    1
    13     5     6   am
    14     5    33    1
    15     6     7    2
    16     6     8    1
    17     8     9    1
    18     8    34    1
    19     8    35    1
    20     9    10    1
    21     9    11    1
    22     9    12    1
    23    10    36    1
    24    10    37    1
    25    10    38    1
    26    11    39    1
    27    11    40    1
    28    11    41    1
    29    12    14    1
    30    12    13    1
    31    12    42    1
    32    13    14    1
    33    13    43    1
    34    13    44    1
    35    14    45    1
    36    14    46    1
    37    15    16    2
    38    15    17    1
    39    17    25    1
    40    17    18    2
    41    18    19    1
    42    18    47    1
    43    19    24    1
    44    19    20    2
    45    20    21    1
    46    20    25    1
    47    21    22    1
    48    21    48    1
    49    21    49    1
    50    22    23    1
    51    22    50    1
    52    22    51    1
    53    23    24    1
    54    23    52    1
    55    23    53    1
    56    24    54    1
    57    24    55    1
    58    25    56    1
@<TRIPOS>SUBSTRUCTURE
     1 ZINC001386869844        1 TEMP              0 ****  ****    0 ROOT


##########                                Name:    ZINC000859202493
##########                DOCK_Rotatable_Bonds:                  11
##########                         Heavy_Atoms:                  25
##########                    Molecular_Weight:             382.404
##########                DOCK_Rotatable_Bonds:                  11
##########                       Formal_Charge:          -0.0200009
##########                     HBond_Acceptors:                  10
##########                        HBond_Donors:                   3
##########                         Heavy_Atoms:                  25
##########                          Grid_Score:          -31.436916
##########                     Grid_vdw_energy:          -30.353949
##########                      Grid_es_energy:           -1.082968
##########           Internal_energy_repulsive:           12.292997

@<TRIPOS>MOLECULE
ZINC000859202493
 46 46 1 0 0
SMALL
USER_CHARGES


@<TRIPOS>ATOM
      1 C1        -12.1762   -0.7934   60.5554 C.3     1  ZINC000859202493   -0.1500
      2 C2        -13.0255   -1.9933   60.1313 C.3     1  ZINC000859202493   -0.1200
      3 C3        -12.7044   -2.3581   58.6805 C.3     1  ZINC000859202493   -0.1000
      4 H4        -12.6668   -1.4509   58.0776 H       1  ZINC000859202493    0.0700
      5 C5        -13.7908   -3.2877   58.1360 C.3     1  ZINC000859202493   -0.1600
      6 C6        -11.3497   -3.0667   58.6206 C.3     1  ZINC000859202493   -0.1200
      7 C7        -10.3472   -2.1877   57.8701 C.3     1  ZINC000859202493    0.1600
      8 H8        -10.5143   -1.1425   58.1303 H       1  ZINC000859202493    0.1000
      9 C9        -10.5337   -2.3741   56.3630 C.3     1  ZINC000859202493    0.0500
     10 O10       -10.8341   -1.1135   55.7607 O.3     1  ZINC000859202493   -0.5700
     11 N11        -8.9842   -2.5725   58.2447 N.am    1  ZINC000859202493   -1.1000
     12 S12        -7.7770   -1.4388   58.2549 S.o2    1  ZINC000859202493    2.6900
     13 O13        -6.6307   -2.0782   58.7993 O.2     1  ZINC000859202493   -0.9500
     14 O14        -7.7903   -0.8271   56.9724 O.2     1  ZINC000859202493   -0.9500
     15 C15        -8.2441   -0.1899   59.4068 C.ar    1  ZINC000859202493   -0.6600
     16 C16        -8.9686    0.9074   58.9794 C.ar    1  ZINC000859202493   -0.0300
     17 C17        -9.3368    1.8901   59.8803 C.ar    1  ZINC000859202493   -0.1100
     18 C18        -8.9820    1.7778   61.2101 C.ar    1  ZINC000859202493   -0.0600
     19 C19        -8.2545    0.6765   61.6426 C.ar    1  ZINC000859202493    0.1200
     20 N20        -7.8939    0.5594   62.9895 N.am    1  ZINC000859202493   -0.6500
     21 C21        -8.8479    0.4716   63.9375 C.2     1  ZINC000859202493    0.4800
     22 O22       -10.0191    0.4941   63.6231 O.2     1  ZINC000859202493   -0.4500
     23 C23        -8.4594    0.3456   65.3880 C.3     1  ZINC000859202493    0.4600
     24 F24        -8.8671   -0.9015   65.8733 F       1  ZINC000859202493   -0.1500
     25 F25        -7.0707    0.4624   65.5107 F       1  ZINC000859202493   -0.1600
     26 F26        -9.0796    1.3590   66.1266 F       1  ZINC000859202493   -0.1600
     27 C27        -7.8910   -0.3110   60.7367 C.ar    1  ZINC000859202493   -0.0300
     28 H28       -12.4049   -0.5336   61.5889 H       1  ZINC000859202493    0.0500
     29 H29       -11.1197   -1.0477   60.4700 H       1  ZINC000859202493    0.0500
     30 H30       -12.3989    0.0558   59.9094 H       1  ZINC000859202493    0.0600
     31 H31       -12.8027   -2.8426   60.7773 H       1  ZINC000859202493    0.0600
     32 H32       -14.0819   -1.7391   60.2167 H       1  ZINC000859202493    0.0600
     33 H33       -13.5620   -3.5476   57.1024 H       1  ZINC000859202493    0.0500
     34 H34       -13.8283   -4.1950   58.7390 H       1  ZINC000859202493    0.0600
     35 H35       -14.7558   -2.7829   58.1787 H       1  ZINC000859202493    0.0600
     36 H36       -10.9886   -3.2464   59.6332 H       1  ZINC000859202493    0.0800
     37 H37       -11.4600   -4.0180   58.1000 H       1  ZINC000859202493    0.0800
     38 H38        -9.6169   -2.7743   55.9301 H       1  ZINC000859202493    0.0600
     39 H39       -11.3543   -3.0682   56.1815 H       1  ZINC000859202493    0.0600
     40 H40       -10.2058   -0.4125   55.9814 H       1  ZINC000859202493    0.3800
     41 H41        -8.7887   -3.4912   58.4869 H       1  ZINC000859202493    0.4200
     42 H42        -9.2473    0.9976   57.9400 H       1  ZINC000859202493    0.1500
     43 H43        -9.9021    2.7465   59.5433 H       1  ZINC000859202493    0.1400
     44 H44        -9.2694    2.5457   61.9130 H       1  ZINC000859202493    0.1400
     45 H45        -6.9572    0.5414   63.2410 H       1  ZINC000859202493    0.4200
     46 H46        -7.3254   -1.1686   61.0699 H       1  ZINC000859202493    0.1500
@<TRIPOS>BOND
     1     1     2    1
     2     1    28    1
     3     1    29    1
     4     1    30    1
     5     2     3    1
     6     2    31    1
     7     2    32    1
     8     3     4    1
     9     3     5    1
    10     3     6    1
    11     5    33    1
    12     5    34    1
    13     5    35    1
    14     6     7    1
    15     6    36    1
    16     6    37    1
    17     7     8    1
    18     7     9    1
    19     7    11    1
    20     9    10    1
    21     9    38    1
    22     9    39    1
    23    10    40    1
    24    11    12   am
    25    11    41    1
    26    12    13    2
    27    12    14    2
    28    12    15    1
    29    15    27   ar
    30    15    16   ar
    31    16    17   ar
    32    16    42    1
    33    17    18   ar
    34    17    43    1
    35    18    19   ar
    36    18    44    1
    37    19    20    1
    38    19    27   ar
    39    20    21   am
    40    20    45    1
    41    21    22    2
    42    21    23    1
    43    23    24    1
    44    23    25    1
    45    23    26    1
    46    27    46    1
@<TRIPOS>SUBSTRUCTURE
     1 ZINC000859202493        1 TEMP              0 ****  ****    0 ROOT


##########                                Name:    ZINC001061022329
##########                DOCK_Rotatable_Bonds:                   7
##########                         Heavy_Atoms:                  27
##########                    Molecular_Weight:             374.523
##########                DOCK_Rotatable_Bonds:                   7
##########                       Formal_Charge:           0.0800005
##########                     HBond_Acceptors:                   5
##########                        HBond_Donors:                   0
##########                         Heavy_Atoms:                  27
##########                          Grid_Score:          -31.430830
##########                     Grid_vdw_energy:          -30.904421
##########                      Grid_es_energy:           -0.526409
##########           Internal_energy_repulsive:           17.395819

@<TRIPOS>MOLECULE
ZINC001061022329
 61 64 1 0 0
SMALL
USER_CHARGES


@<TRIPOS>ATOM
      1 C1        -12.7660    3.3144   49.6650 C.3     1  ZINC001061022329   -0.1500
      2 C2        -12.0747    4.6779   49.5998 C.3     1  ZINC001061022329   -0.1200
      3 C3        -10.5627    4.4778   49.4780 C.3     1  ZINC001061022329    0.0800
      4 H4        -10.3530    3.7770   48.6698 H       1  ZINC001061022329    0.0600
      5 C5         -9.8934    5.8200   49.1756 C.3     1  ZINC001061022329   -0.1800
      6 O6        -10.0507    3.9560   50.7058 O.3     1  ZINC001061022329   -0.3500
      7 C7         -8.8297    3.2274   50.5635 C.3     1  ZINC001061022329    0.0500
      8 C8         -7.7623    3.8645   51.4153 C.2     1  ZINC001061022329    0.5200
      9 O9         -8.0476    4.7737   52.1656 O.2     1  ZINC001061022329   -0.5100
     10 N10        -6.4906    3.4241   51.3434 N.am    1  ZINC001061022329   -0.6100
     11 C11        -5.4429    4.0347   52.1721 C.3     1  ZINC001061022329    0.1100
     12 C12        -4.3110    4.5192   51.2582 C.3     1  ZINC001061022329   -0.1200
     13 C13        -3.8698    3.3691   50.3563 C.3     1  ZINC001061022329   -0.0900
     14 C14        -2.5965    3.6705   49.5539 C.3     1  ZINC001061022329    0.1200
     15 N15        -2.1825    2.2939   49.8917 N.am    1  ZINC001061022329   -0.6400
     16 C16        -1.3467    1.3958   49.3335 C.2     1  ZINC001061022329    0.5400
     17 O17        -1.1981    0.3062   49.8448 O.2     1  ZINC001061022329   -0.5300
     18 C18        -0.5969    1.7458   48.0740 C.3     1  ZINC001061022329   -0.0900
     19 H19        -0.0264    2.6608   48.2334 H       1  ZINC001061022329    0.1000
     20 C20        -1.5918    1.9578   46.9307 C.3     1  ZINC001061022329   -0.1000
     21 C21        -1.3013    0.9570   45.8050 C.3     1  ZINC001061022329   -0.0600
     22 H22        -2.0314    1.0562   45.0018 H       1  ZINC001061022329    0.0800
     23 C23        -1.3431   -0.4417   46.4025 C.2     1  ZINC001061022329   -0.1800
     24 C24        -0.4779   -0.6262   47.3968 C.2     1  ZINC001061022329   -0.1300
     25 C25         0.3608    0.6024   47.7150 C.3     1  ZINC001061022329   -0.0400
     26 H26         1.0546    0.3963   48.5300 H       1  ZINC001061022329    0.0900
     27 C27         1.1201    0.9918   46.4392 C.3     1  ZINC001061022329   -0.1100
     28 C28         0.1193    1.2156   45.2843 C.3     1  ZINC001061022329   -0.1100
     29 C29        -3.0501    2.2961   51.0864 C.3     1  ZINC001061022329    0.1100
     30 C30        -5.0054    2.7992   49.5100 C.3     1  ZINC001061022329   -0.1100
     31 C31        -6.1339    2.3225   50.4396 C.3     1  ZINC001061022329    0.1100
     32 H32       -12.5459    2.7518   48.7578 H       1  ZINC001061022329    0.0500
     33 H33       -12.4014    2.7634   50.5318 H       1  ZINC001061022329    0.0600
     34 H34       -13.8431    3.4570   49.7519 H       1  ZINC001061022329    0.0600
     35 H35       -12.4394    5.2290   48.7330 H       1  ZINC001061022329    0.0800
     36 H36       -12.2948    5.2406   50.5071 H       1  ZINC001061022329    0.0700
     37 H37        -8.8163    5.6775   49.0889 H       1  ZINC001061022329    0.0600
     38 H38       -10.2839    6.2180   48.2391 H       1  ZINC001061022329    0.0700
     39 H39       -10.1031    6.5207   49.9838 H       1  ZINC001061022329    0.0700
     40 H40        -8.9824    2.1965   50.8831 H       1  ZINC001061022329    0.0800
     41 H41        -8.5178    3.2416   49.5191 H       1  ZINC001061022329    0.0800
     42 H42        -5.8575    4.8808   52.7203 H       1  ZINC001061022329    0.0900
     43 H43        -5.0553    3.2963   52.8740 H       1  ZINC001061022329    0.0800
     44 H44        -4.6667    5.3473   50.6452 H       1  ZINC001061022329    0.0800
     45 H45        -3.4684    4.8498   51.8657 H       1  ZINC001061022329    0.0800
     46 H46        -2.7741    3.8277   48.4900 H       1  ZINC001061022329    0.0800
     47 H47        -1.9676    4.4409   50.0001 H       1  ZINC001061022329    0.0900
     48 H48        -2.6063    1.8055   47.2992 H       1  ZINC001061022329    0.0700
     49 H49        -1.4936    2.9736   46.5477 H       1  ZINC001061022329    0.0700
     50 H50        -2.0128   -1.2132   46.0522 H       1  ZINC001061022329    0.1200
     51 H51        -0.3806   -1.5611   47.9286 H       1  ZINC001061022329    0.1200
     52 H52         1.6745    1.9139   46.6137 H       1  ZINC001061022329    0.0700
     53 H53         1.8150    0.1954   46.1728 H       1  ZINC001061022329    0.0700
     54 H54         0.3392    0.5212   44.4735 H       1  ZINC001061022329    0.0700
     55 H55         0.2084    2.2391   44.9200 H       1  ZINC001061022329    0.0700
     56 H56        -2.5560    2.6580   51.9881 H       1  ZINC001061022329    0.0900
     57 H57        -3.5883    1.3608   51.2407 H       1  ZINC001061022329    0.0800
     58 H58        -5.3837    3.5713   48.8401 H       1  ZINC001061022329    0.0800
     59 H59        -4.6365    1.9566   48.9250 H       1  ZINC001061022329    0.0800
     60 H60        -5.7926    1.4641   51.0182 H       1  ZINC001061022329    0.0700
     61 H61        -7.0035    2.0427   49.8451 H       1  ZINC001061022329    0.1000
@<TRIPOS>BOND
     1     1     2    1
     2     1    32    1
     3     1    33    1
     4     1    34    1
     5     2     3    1
     6     2    35    1
     7     2    36    1
     8     3     4    1
     9     3     5    1
    10     3     6    1
    11     5    37    1
    12     5    38    1
    13     5    39    1
    14     6     7    1
    15     7     8    1
    16     7    40    1
    17     7    41    1
    18     8     9    2
    19     8    10   am
    20    10    31    1
    21    10    11    1
    22    11    12    1
    23    11    42    1
    24    11    43    1
    25    12    13    1
    26    12    44    1
    27    12    45    1
    28    13    29    1
    29    13    14    1
    30    13    30    1
    31    14    15    1
    32    14    46    1
    33    14    47    1
    34    15    16   am
    35    15    29    1
    36    16    17    2
    37    16    18    1
    38    18    19    1
    39    18    25    1
    40    18    20    1
    41    20    21    1
    42    20    48    1
    43    20    49    1
    44    21    22    1
    45    21    28    1
    46    21    23    1
    47    23    24    2
    48    23    50    1
    49    24    25    1
    50    24    51    1
    51    25    26    1
    52    25    27    1
    53    27    28    1
    54    27    52    1
    55    27    53    1
    56    28    54    1
    57    28    55    1
    58    29    56    1
    59    29    57    1
    60    30    31    1
    61    30    58    1
    62    30    59    1
    63    31    60    1
    64    31    61    1
@<TRIPOS>SUBSTRUCTURE
     1 ZINC001061022329        1 TEMP              0 ****  ****    0 ROOT


##########                                Name:    ZINC000032503012
##########                DOCK_Rotatable_Bonds:                   8
##########                         Heavy_Atoms:                  27
##########                    Molecular_Weight:             390.503
##########                DOCK_Rotatable_Bonds:                   8
##########                       Formal_Charge:           0.0099995
##########                     HBond_Acceptors:                   7
##########                        HBond_Donors:                   2
##########                         Heavy_Atoms:                  27
##########                          Grid_Score:          -31.430511
##########                     Grid_vdw_energy:          -30.992641
##########                      Grid_es_energy:           -0.437870
##########           Internal_energy_repulsive:           39.565598

@<TRIPOS>MOLECULE
ZINC000032503012
 53 54 1 0 0
SMALL
USER_CHARGES


@<TRIPOS>ATOM
      1 C1        -11.1107    5.4532   48.4466 C.3     1  ZINC000032503012   -0.1200
      2 C2        -10.6654    4.5602   49.5759 C.ar    1  ZINC000032503012   -0.0500
      3 C3        -11.5379    4.2628   50.6062 C.ar    1  ZINC000032503012   -0.1600
      4 C4        -11.1324    3.4436   51.6440 C.ar    1  ZINC000032503012   -0.0700
      5 C5         -9.8540    2.9206   51.6534 C.ar    1  ZINC000032503012   -0.1500
      6 C6         -8.9765    3.2177   50.6205 C.ar    1  ZINC000032503012    0.1300
      7 O7         -7.7183    2.7039   50.6273 O.3     1  ZINC000032503012   -0.2800
      8 C8         -6.7424    3.3673   49.8216 C.3     1  ZINC000032503012    0.0700
      9 H9         -7.0942    3.4162   48.7910 H       1  ZINC000032503012    0.1100
     10 C10        -6.5209    4.7850   50.3526 C.3     1  ZINC000032503012   -0.1800
     11 C11        -5.4446    2.6030   49.8735 C.2     1  ZINC000032503012    0.5200
     12 O12        -5.4117    1.4967   50.3694 O.2     1  ZINC000032503012   -0.4900
     13 N13        -4.3204    3.1489   49.3689 N.am    1  ZINC000032503012   -0.6700
     14 C14        -3.1153    2.4394   49.4171 C.ar    1  ZINC000032503012    0.1300
     15 C15        -2.3100    2.5119   50.5459 C.ar    1  ZINC000032503012   -0.0600
     16 C16        -1.1210    1.8103   50.5904 C.ar    1  ZINC000032503012   -0.1200
     17 C17        -0.7322    1.0368   49.5124 C.ar    1  ZINC000032503012   -0.0300
     18 C18        -1.5318    0.9628   48.3864 C.ar    1  ZINC000032503012   -0.6600
     19 S19        -1.0319   -0.0243   47.0152 S.o2    1  ZINC000032503012    2.7000
     20 O20         0.2377   -0.5663   47.3527 O.2     1  ZINC000032503012   -0.9600
     21 O21        -2.1522   -0.8268   46.6687 O.2     1  ZINC000032503012   -0.9500
     22 N22        -0.7785    1.0009   45.7397 N.am    1  ZINC000032503012   -1.1100
     23 C23         0.2258    2.0627   45.8415 C.3     1  ZINC000032503012    0.1700
     24 C24         1.5204    1.4866   46.4185 C.3     1  ZINC000032503012   -0.1900
     25 C25         0.4995    2.6407   44.4516 C.3     1  ZINC000032503012   -0.1500
     26 C26        -0.2941    3.1697   46.7609 C.3     1  ZINC000032503012   -0.1800
     27 C27        -2.7249    1.6565   48.3382 C.ar    1  ZINC000032503012   -0.0400
     28 C28        -9.3876    4.0349   49.5779 C.ar    1  ZINC000032503012   -0.2100
     29 H29       -11.5550    4.8468   47.6574 H       1  ZINC000032503012    0.0700
     30 H30       -11.8482    6.1659   48.8160 H       1  ZINC000032503012    0.0700
     31 H31       -10.2509    5.9929   48.0496 H       1  ZINC000032503012    0.0700
     32 H32       -12.5377    4.6711   50.6009 H       1  ZINC000032503012    0.1300
     33 H33       -11.8156    3.2130   52.4480 H       1  ZINC000032503012    0.1300
     34 H34        -9.5377    2.2812   52.4643 H       1  ZINC000032503012    0.1300
     35 H35        -7.4596    5.3378   50.3149 H       1  ZINC000032503012    0.0800
     36 H36        -6.1691    4.7361   51.3830 H       1  ZINC000032503012    0.0800
     37 H37        -5.7764    5.2910   49.7380 H       1  ZINC000032503012    0.0800
     38 H38        -4.3466    4.0338   48.9723 H       1  ZINC000032503012    0.4100
     39 H39        -2.6128    3.1165   51.3881 H       1  ZINC000032503012    0.1400
     40 H40        -0.4941    1.8662   51.4681 H       1  ZINC000032503012    0.1400
     41 H41         0.1982    0.4895   49.5495 H       1  ZINC000032503012    0.1500
     42 H42        -1.2950    0.8984   44.9250 H       1  ZINC000032503012    0.4200
     43 H43         1.7948    0.5869   45.8676 H       1  ZINC000032503012    0.0700
     44 H44         2.3177    2.2244   46.3297 H       1  ZINC000032503012    0.0800
     45 H45         1.3708    1.2378   47.4692 H       1  ZINC000032503012    0.0700
     46 H46        -0.4227    3.0511   44.0406 H       1  ZINC000032503012    0.0700
     47 H47         1.2467    3.4307   44.5275 H       1  ZINC000032503012    0.0700
     48 H48         0.8699    1.8520   43.7967 H       1  ZINC000032503012    0.0600
     49 H49        -0.3014    2.8130   47.7909 H       1  ZINC000032503012    0.0900
     50 H50         0.3554    4.0416   46.6829 H       1  ZINC000032503012    0.0700
     51 H51        -1.3065    3.4431   46.4639 H       1  ZINC000032503012    0.0600
     52 H52        -3.3490    1.5984   47.4587 H       1  ZINC000032503012    0.1400
     53 H53        -8.7063    4.2677   48.7727 H       1  ZINC000032503012    0.1300
@<TRIPOS>BOND
     1     1     2    1
     2     1    29    1
     3     1    30    1
     4     1    31    1
     5     2    28   ar
     6     2     3   ar
     7     3     4   ar
     8     3    32    1
     9     4     5   ar
    10     4    33    1
    11     5     6   ar
    12     5    34    1
    13     6     7    1
    14     6    28   ar
    15     7     8    1
    16     8     9    1
    17     8    10    1
    18     8    11    1
    19    10    35    1
    20    10    36    1
    21    10    37    1
    22    11    12    2
    23    11    13   am
    24    13    14    1
    25    13    38    1
    26    14    27   ar
    27    14    15   ar
    28    15    16   ar
    29    15    39    1
    30    16    17   ar
    31    16    40    1
    32    17    18   ar
    33    17    41    1
    34    18    19    1
    35    18    27   ar
    36    19    20    2
    37    19    21    2
    38    19    22   am
    39    22    23    1
    40    22    42    1
    41    23    24    1
    42    23    25    1
    43    23    26    1
    44    24    43    1
    45    24    44    1
    46    24    45    1
    47    25    46    1
    48    25    47    1
    49    25    48    1
    50    26    49    1
    51    26    50    1
    52    26    51    1
    53    27    52    1
    54    28    53    1
@<TRIPOS>SUBSTRUCTURE
     1 ZINC000032503012        1 TEMP              0 ****  ****    0 ROOT


##########                                Name:    ZINC000867639366
##########                DOCK_Rotatable_Bonds:                   6
##########                         Heavy_Atoms:                  25
##########                    Molecular_Weight:             388.509
##########                DOCK_Rotatable_Bonds:                   6
##########                       Formal_Charge:          0.00999961
##########                     HBond_Acceptors:                   9
##########                        HBond_Donors:                   1
##########                         Heavy_Atoms:                  25
##########                          Grid_Score:          -31.423363
##########                     Grid_vdw_energy:          -30.255135
##########                      Grid_es_energy:           -1.168229
##########           Internal_energy_repulsive:           42.749199

@<TRIPOS>MOLECULE
ZINC000867639366
 49 51 1 0 0
SMALL
USER_CHARGES


@<TRIPOS>ATOM
      1 C1         -7.5237    5.6415   54.1058 C.3     1  ZINC000867639366    0.0300
      2 O2         -7.1600    4.5894   53.2097 O.3     1  ZINC000867639366   -0.3800
      3 C3         -7.4968    4.8461   51.8448 C.3     1  ZINC000867639366    0.0800
      4 H4         -7.9371    5.8396   51.7594 H       1  ZINC000867639366    0.0800
      5 C5         -8.5021    3.7986   51.3610 C.3     1  ZINC000867639366   -0.1400
      6 C6         -7.8975    2.4008   51.5121 C.3     1  ZINC000867639366   -0.1200
      7 C7         -6.6376    2.2976   50.6468 C.3     1  ZINC000867639366    0.1500
      8 H8         -6.9093    2.3799   49.5944 H       1  ZINC000867639366    0.0800
      9 C9         -5.9529    0.9522   50.8960 C.3     1  ZINC000867639366   -0.1900
     10 N10        -5.7256    3.3918   51.0070 N.am    1  ZINC000867639366   -0.9800
     11 S11        -4.1561    3.0768   51.4312 S.o2    1  ZINC000867639366    2.6900
     12 O12        -3.5164    4.3384   51.5676 O.2     1  ZINC000867639366   -0.9500
     13 O13        -4.2080    2.1148   52.4756 O.2     1  ZINC000867639366   -0.9400
     14 C14        -3.3945    2.2789   50.0572 C.ar    1  ZINC000867639366   -0.6300
     15 C15        -2.4091    1.3323   50.2668 C.ar    1  ZINC000867639366   -0.0500
     16 C16        -1.8116    0.7063   49.1888 C.ar    1  ZINC000867639366   -0.0400
     17 C17        -2.1997    1.0264   47.9013 C.ar    1  ZINC000867639366   -0.6300
     18 S18        -1.4378    0.2289   46.5273 S.o2    1  ZINC000867639366    2.7000
     19 O19        -1.4429   -1.1621   46.8173 O.2     1  ZINC000867639366   -0.9400
     20 O20        -2.0332    0.7820   45.3616 O.2     1  ZINC000867639366   -0.9500
     21 N21         0.1507    0.6968   46.5080 N.am    1  ZINC000867639366   -1.0800
     22 C22         1.0141    0.4052   47.6550 C.3     1  ZINC000867639366    0.0800
     23 C23         2.2751    1.2550   47.8241 C.3     1  ZINC000867639366   -0.1800
     24 C24         1.0875    1.4523   48.7683 C.3     1  ZINC000867639366   -0.1900
     25 C25        -3.1861    1.9720   47.6918 C.ar    1  ZINC000867639366   -0.0400
     26 C26        -3.7863    2.5953   48.7699 C.ar    1  ZINC000867639366   -0.0400
     27 C27        -6.2322    4.7714   50.9835 C.3     1  ZINC000867639366    0.1200
     28 H28        -7.0122    6.5591   53.8154 H       1  ZINC000867639366    0.0400
     29 H29        -8.6017    5.7976   54.0644 H       1  ZINC000867639366    0.0400
     30 H30        -7.2347    5.3700   55.1211 H       1  ZINC000867639366    0.0900
     31 H31        -9.4125    3.8667   51.9566 H       1  ZINC000867639366    0.0700
     32 H32        -8.7397    3.9801   50.3129 H       1  ZINC000867639366    0.0700
     33 H33        -7.6368    2.2280   52.5562 H       1  ZINC000867639366    0.0800
     34 H34        -8.6227    1.6538   51.1892 H       1  ZINC000867639366    0.0800
     35 H35        -6.5795    0.1485   50.5091 H       1  ZINC000867639366    0.0700
     36 H36        -4.9878    0.9363   50.3897 H       1  ZINC000867639366    0.0600
     37 H37        -5.8039    0.8132   51.9667 H       1  ZINC000867639366    0.1000
     38 H38        -2.1057    1.0822   51.2727 H       1  ZINC000867639366    0.1600
     39 H39        -1.0411   -0.0327   49.3526 H       1  ZINC000867639366    0.1500
     40 H40         0.5094    1.1639   45.7373 H       1  ZINC000867639366    0.4200
     41 H41         1.0708   -0.6437   47.9462 H       1  ZINC000867639366    0.1400
     42 H42         3.1619    0.7652   48.2262 H       1  ZINC000867639366    0.1100
     43 H43         2.4623    2.0310   47.0818 H       1  ZINC000867639366    0.1000
     44 H44         0.4933    2.3580   48.6472 H       1  ZINC000867639366    0.1000
     45 H45         1.1929    1.0923   49.7916 H       1  ZINC000867639366    0.1000
     46 H46        -3.4897    2.2218   46.6859 H       1  ZINC000867639366    0.1500
     47 H47        -4.5569    3.3340   48.6062 H       1  ZINC000867639366    0.1500
     48 H48        -6.4709    5.0555   49.9585 H       1  ZINC000867639366    0.0900
     49 H49        -5.4756    5.4455   51.3849 H       1  ZINC000867639366    0.1000
@<TRIPOS>BOND
     1     1     2    1
     2     1    28    1
     3     1    29    1
     4     1    30    1
     5     2     3    1
     6     3     4    1
     7     3    27    1
     8     3     5    1
     9     5     6    1
    10     5    31    1
    11     5    32    1
    12     6     7    1
    13     6    33    1
    14     6    34    1
    15     7     8    1
    16     7     9    1
    17     7    10    1
    18     9    35    1
    19     9    36    1
    20     9    37    1
    21    10    11   am
    22    10    27    1
    23    11    12    2
    24    11    13    2
    25    11    14    1
    26    14    26   ar
    27    14    15   ar
    28    15    16   ar
    29    15    38    1
    30    16    17   ar
    31    16    39    1
    32    17    18    1
    33    17    25   ar
    34    18    19    2
    35    18    20    2
    36    18    21   am
    37    21    22    1
    38    21    40    1
    39    22    24    1
    40    22    23    1
    41    22    41    1
    42    23    24    1
    43    23    42    1
    44    23    43    1
    45    24    44    1
    46    24    45    1
    47    25    26   ar
    48    25    46    1
    49    26    47    1
    50    27    48    1
    51    27    49    1
@<TRIPOS>SUBSTRUCTURE
     1 ZINC000867639366        1 TEMP              0 ****  ****    0 ROOT


##########                                Name:    ZINC001143596311
##########                DOCK_Rotatable_Bonds:                   9
##########                         Heavy_Atoms:                  21
##########                    Molecular_Weight:             335.811
##########                DOCK_Rotatable_Bonds:                   9
##########                       Formal_Charge:          0.00999959
##########                     HBond_Acceptors:                   9
##########                        HBond_Donors:                   3
##########                         Heavy_Atoms:                  21
##########                          Grid_Score:          -31.414536
##########                     Grid_vdw_energy:          -30.678083
##########                      Grid_es_energy:           -0.736451
##########           Internal_energy_repulsive:           12.884574

@<TRIPOS>MOLECULE
ZINC001143596311
 39 39 1 0 0
SMALL
USER_CHARGES


@<TRIPOS>ATOM
      1 C1         -9.2743   -0.3000   52.4240 C.3     1  ZINC001143596311    0.0400
      2 O2         -9.2434    0.9138   51.6703 O.3     1  ZINC001143596311   -0.2600
      3 N3         -7.9009    1.4646   51.4840 N.3     1  ZINC001143596311   -0.3700
      4 C4         -7.0482    0.5311   50.7359 C.3     1  ZINC001143596311    0.0000
      5 C5         -7.9566    2.7740   50.8204 C.3     1  ZINC001143596311    0.0400
      6 C6         -6.8606    3.6793   51.3860 C.3     1  ZINC001143596311   -0.1300
      7 C7         -6.1767    4.4289   50.2408 C.3     1  ZINC001143596311    0.1200
      8 N8         -5.2439    3.5297   49.5569 N.am    1  ZINC001143596311   -0.7200
      9 C9         -4.0050    3.3402   50.0524 C.2     1  ZINC001143596311    0.5600
     10 O10        -3.6619    3.9142   51.0676 O.2     1  ZINC001143596311   -0.5200
     11 C11        -3.0634    2.4345   49.3615 C.ar    1  ZINC001143596311   -0.1500
     12 C12        -2.2727    1.5510   50.0984 C.ar    1  ZINC001143596311   -0.0200
     13 C13        -1.3960    0.7082   49.4482 C.ar    1  ZINC001143596311   -0.1300
     14 C14        -1.2987    0.7374   48.0670 C.ar    1  ZINC001143596311    0.0700
     15 Cl15       -0.1927   -0.3266   47.2554 Cl      1  ZINC001143596311   -0.0200
     16 C16        -2.0808    1.6120   47.3303 C.ar    1  ZINC001143596311   -0.6800
     17 S17        -1.9505    1.6414   45.5733 S.o2    1  ZINC001143596311    2.7000
     18 N18        -0.3802    2.0161   45.2045 N.am    1  ZINC001143596311   -1.2500
     19 O19        -2.1585    0.3065   45.1331 O.2     1  ZINC001143596311   -0.9400
     20 O20        -2.7391    2.7376   45.1308 O.2     1  ZINC001143596311   -0.9500
     21 C21        -2.9654    2.4550   47.9688 C.ar    1  ZINC001143596311    0.0500
     22 H22        -8.6829   -1.0599   51.9133 H       1  ZINC001143596311    0.0400
     23 H23        -8.8590   -0.1223   53.4160 H       1  ZINC001143596311    0.0500
     24 H24       -10.3045   -0.6434   52.5176 H       1  ZINC001143596311    0.0900
     25 H25        -7.4877    0.3426   49.7565 H       1  ZINC001143596311    0.0400
     26 H26        -6.0562    0.9653   50.6116 H       1  ZINC001143596311    0.0900
     27 H27        -6.9679   -0.4072   51.2849 H       1  ZINC001143596311    0.0800
     28 H28        -7.8041    2.6450   49.7488 H       1  ZINC001143596311    0.0500
     29 H29        -8.9310    3.2295   50.9965 H       1  ZINC001143596311    0.0900
     30 H30        -7.3029    4.3971   52.0769 H       1  ZINC001143596311    0.0800
     31 H31        -6.1247    3.0728   51.9139 H       1  ZINC001143596311    0.0800
     32 H32        -6.9296    4.7775   49.5339 H       1  ZINC001143596311    0.0800
     33 H33        -5.6306    5.2832   50.6407 H       1  ZINC001143596311    0.0800
     34 H34        -5.5180    3.0709   48.7475 H       1  ZINC001143596311    0.4000
     35 H35        -2.3472    1.5278   51.1756 H       1  ZINC001143596311    0.1500
     36 H36        -0.7837    0.0242   50.0171 H       1  ZINC001143596311    0.1600
     37 H37        -0.1018    2.0806   44.2775 H       1  ZINC001143596311    0.4200
     38 H38         0.2613    2.1712   45.9155 H       1  ZINC001143596311    0.4200
     39 H39        -3.5746    3.1364   47.3935 H       1  ZINC001143596311    0.1700
@<TRIPOS>BOND
     1     1     2    1
     2     1    22    1
     3     1    23    1
     4     1    24    1
     5     2     3    1
     6     3     4    1
     7     3     5    1
     8     4    25    1
     9     4    26    1
    10     4    27    1
    11     5     6    1
    12     5    28    1
    13     5    29    1
    14     6     7    1
    15     6    30    1
    16     6    31    1
    17     7     8    1
    18     7    32    1
    19     7    33    1
    20     8     9   am
    21     8    34    1
    22     9    10    2
    23     9    11    1
    24    11    21   ar
    25    11    12   ar
    26    12    13   ar
    27    12    35    1
    28    13    14   ar
    29    13    36    1
    30    14    15    1
    31    14    16   ar
    32    16    17    1
    33    16    21   ar
    34    17    18   am
    35    17    19    2
    36    17    20    2
    37    18    37    1
    38    18    38    1
    39    21    39    1
@<TRIPOS>SUBSTRUCTURE
     1 ZINC001143596311        1 TEMP              0 ****  ****    0 ROOT


##########                                Name:    ZINC000271662144
##########                DOCK_Rotatable_Bonds:                   8
##########                         Heavy_Atoms:                  26
##########                    Molecular_Weight:             390.402
##########                DOCK_Rotatable_Bonds:                   8
##########                       Formal_Charge:          0.00999944
##########                     HBond_Acceptors:                   9
##########                        HBond_Donors:                   3
##########                         Heavy_Atoms:                  26
##########                          Grid_Score:          -31.413452
##########                     Grid_vdw_energy:          -25.942186
##########                      Grid_es_energy:           -5.471267
##########           Internal_energy_repulsive:           27.089060

@<TRIPOS>MOLECULE
ZINC000271662144
 44 45 1 0 0
SMALL
USER_CHARGES


@<TRIPOS>ATOM
      1 C1         -8.5105    2.2105   60.0788 C.3     1  ZINC000271662144   -0.1400
      2 C2         -8.2553    0.8540   60.7388 C.3     1  ZINC000271662144    0.1200
      3 H3         -7.1829    0.7099   60.8700 H       1  ZINC000271662144    0.0600
      4 N4         -8.7922   -0.2144   59.8854 N.3     1  ZINC000271662144   -0.6700
      5 C5         -8.0116   -0.3417   58.6474 C.3     1  ZINC000271662144    0.1300
      6 H6         -7.1615    0.3397   58.6823 H       1  ZINC000271662144    0.1100
      7 C7         -7.5075   -1.7794   58.5078 C.3     1  ZINC000271662144   -0.2000
      8 C8         -8.6725   -2.6931   58.1217 C.3     1  ZINC000271662144    0.4600
      9 F9         -9.0046   -2.4830   56.7790 F       1  ZINC000271662144   -0.1800
     10 F10        -8.2988   -4.0285   58.3063 F       1  ZINC000271662144   -0.1800
     11 F11        -9.7793   -2.4029   58.9267 F       1  ZINC000271662144   -0.1700
     12 C12        -8.8828    0.0021   57.4668 C.ar    1  ZINC000271662144   -0.0900
     13 C13       -10.2582    0.0200   57.6052 C.ar    1  ZINC000271662144   -0.0600
     14 C14       -11.0581    0.3352   56.5233 C.ar    1  ZINC000271662144   -0.1600
     15 C15       -10.4814    0.6334   55.3003 C.ar    1  ZINC000271662144    0.1000
     16 F16       -11.2624    0.9420   54.2420 F       1  ZINC000271662144   -0.1400
     17 C17        -9.1038    0.6156   55.1629 C.ar    1  ZINC000271662144   -0.1500
     18 C18        -8.3057    0.3048   56.2476 C.ar    1  ZINC000271662144   -0.0700
     19 C19        -8.9359    0.8132   62.0827 C.ar    1  ZINC000271662144   -0.1100
     20 C20       -10.3012    1.0085   62.1721 C.ar    1  ZINC000271662144   -0.0400
     21 C21       -10.9256    0.9711   63.4051 C.ar    1  ZINC000271662144   -0.1400
     22 C22       -10.1845    0.7379   64.5482 C.ar    1  ZINC000271662144   -0.0200
     23 C23        -8.8189    0.5417   64.4588 C.ar    1  ZINC000271662144   -0.6800
     24 S24        -7.8741    0.2450   65.9161 S.o2    1  ZINC000271662144    2.7000
     25 N25        -6.2959    0.5952   65.5568 N.am    1  ZINC000271662144   -1.2500
     26 O26        -8.2926    1.2121   66.8695 O.2     1  ZINC000271662144   -0.9600
     27 O27        -7.9307   -1.1549   66.1530 O.2     1  ZINC000271662144   -0.9600
     28 C28        -8.1954    0.5748   63.2257 C.ar    1  ZINC000271662144   -0.0100
     29 H29        -8.0182    2.2400   59.1067 H       1  ZINC000271662144    0.0600
     30 H30        -9.5830    2.3547   59.9475 H       1  ZINC000271662144    0.0700
     31 H31        -8.1122    3.0034   60.7120 H       1  ZINC000271662144    0.0600
     32 H32        -8.8266   -1.0916   60.3829 H       1  ZINC000271662144    0.3500
     33 H33        -6.7406   -1.8222   57.7344 H       1  ZINC000271662144    0.1100
     34 H34        -7.0855   -2.1103   59.4567 H       1  ZINC000271662144    0.1200
     35 H35       -10.7077   -0.2126   58.5593 H       1  ZINC000271662144    0.1300
     36 H36       -12.1325    0.3484   56.6315 H       1  ZINC000271662144    0.1400
     37 H37        -8.6529    0.8476   54.2094 H       1  ZINC000271662144    0.1400
     38 H38        -7.2311    0.2912   56.1407 H       1  ZINC000271662144    0.1300
     39 H39       -10.8803    1.1907   61.2789 H       1  ZINC000271662144    0.1400
     40 H40       -11.9924    1.1243   63.4751 H       1  ZINC000271662144    0.1400
     41 H41       -10.6722    0.7094   65.5115 H       1  ZINC000271662144    0.1400
     42 H42        -5.8402    0.1102   64.8511 H       1  ZINC000271662144    0.4200
     43 H43        -5.8273    1.2851   66.0519 H       1  ZINC000271662144    0.4200
     44 H44        -7.1286    0.4215   63.1557 H       1  ZINC000271662144    0.1400
@<TRIPOS>BOND
     1     1     2    1
     2     1    29    1
     3     1    30    1
     4     1    31    1
     5     2     3    1
     6     2     4    1
     7     2    19    1
     8     4     5    1
     9     4    32    1
    10     5     6    1
    11     5     7    1
    12     5    12    1
    13     7     8    1
    14     7    33    1
    15     7    34    1
    16     8     9    1
    17     8    10    1
    18     8    11    1
    19    12    18   ar
    20    12    13   ar
    21    13    14   ar
    22    13    35    1
    23    14    15   ar
    24    14    36    1
    25    15    16    1
    26    15    17   ar
    27    17    18   ar
    28    17    37    1
    29    18    38    1
    30    19    28   ar
    31    19    20   ar
    32    20    21   ar
    33    20    39    1
    34    21    22   ar
    35    21    40    1
    36    22    23   ar
    37    22    41    1
    38    23    24    1
    39    23    28   ar
    40    24    25   am
    41    24    26    2
    42    24    27    2
    43    25    42    1
    44    25    43    1
    45    28    44    1
@<TRIPOS>SUBSTRUCTURE
     1 ZINC000271662144        1 TEMP              0 ****  ****    0 ROOT


##########                                Name:    ZINC000506156755
##########                DOCK_Rotatable_Bonds:                   7
##########                         Heavy_Atoms:                  30
##########                    Molecular_Weight:             400.434
##########                DOCK_Rotatable_Bonds:                   7
##########                       Formal_Charge:          -0.0200001
##########                     HBond_Acceptors:                   6
##########                        HBond_Donors:                   1
##########                         Heavy_Atoms:                  30
##########                          Grid_Score:          -31.373224
##########                     Grid_vdw_energy:          -31.206631
##########                      Grid_es_energy:           -0.166593
##########           Internal_energy_repulsive:           11.478531

@<TRIPOS>MOLECULE
ZINC000506156755
 50 53 1 0 0
SMALL
USER_CHARGES


@<TRIPOS>ATOM
      1 C1         -7.0841    3.7816   54.3162 C.3     1  ZINC000506156755   -0.1600
      2 C2         -6.3238    2.6091   54.9392 C.3     1  ZINC000506156755    0.1900
      3 H3         -6.3712    1.7492   54.2711 H       1  ZINC000506156755    0.1000
      4 N4         -6.9314    2.2617   56.2262 N.am    1  ZINC000506156755   -0.7200
      5 C5         -7.9597    1.3918   56.2731 C.2     1  ZINC000506156755    0.5000
      6 O6         -8.3831    0.8977   55.2496 O.2     1  ZINC000506156755   -0.5200
      7 C7         -8.5835    1.0330   57.5971 C.3     1  ZINC000506156755    0.0900
      8 N8         -8.5016   -0.4156   57.7990 N.am    1  ZINC000506156755   -0.5600
      9 C9         -9.5166   -1.2724   57.5855 C.2     1  ZINC000506156755    0.5800
     10 O10       -10.6288   -0.9722   57.2010 O.2     1  ZINC000506156755   -0.4600
     11 C11        -9.0514   -2.6405   57.8966 C.ar    1  ZINC000506156755   -0.1400
     12 C12        -9.6411   -3.8936   57.8646 C.ar    1  ZINC000506156755   -0.0400
     13 C13        -8.9041   -5.0096   58.2305 C.ar    1  ZINC000506156755   -0.0900
     14 C14        -7.5866   -4.8800   58.6265 C.ar    1  ZINC000506156755   -0.0900
     15 C15        -6.9833   -3.6322   58.6635 C.ar    1  ZINC000506156755   -0.0400
     16 C16        -7.7072   -2.5083   58.3008 C.ar    1  ZINC000506156755   -0.1400
     17 C17        -7.3999   -1.0648   58.2166 C.2     1  ZINC000506156755    0.5800
     18 O18        -6.3321   -0.5508   58.4819 O.2     1  ZINC000506156755   -0.4600
     19 C19        -4.8842    3.0007   55.1527 C.ar    1  ZINC000506156755   -0.1200
     20 C20        -4.5158    3.6837   56.2951 C.ar    1  ZINC000506156755   -0.0800
     21 C21        -3.1950    4.0429   56.4919 C.ar    1  ZINC000506156755   -0.1400
     22 C22        -2.2399    3.7194   55.5461 C.ar    1  ZINC000506156755   -0.0800
     23 C23        -2.6031    3.0361   54.4015 C.ar    1  ZINC000506156755   -0.1900
     24 C24        -3.9266    2.6700   54.2042 C.ar    1  ZINC000506156755    0.1300
     25 O25        -4.2864    1.9976   53.0795 O.3     1  ZINC000506156755   -0.2500
     26 C26        -3.8665    2.4854   51.8828 C.ar    1  ZINC000506156755    0.0800
     27 C27        -3.6444    3.8461   51.7261 C.ar    1  ZINC000506156755   -0.1400
     28 C28        -3.2176    4.3393   50.5084 C.ar    1  ZINC000506156755   -0.1000
     29 C29        -3.0118    3.4784   49.4462 C.ar    1  ZINC000506156755   -0.1200
     30 C30        -3.2324    2.1220   49.5996 C.ar    1  ZINC000506156755   -0.1000
     31 C31        -3.6537    1.6229   50.8168 C.ar    1  ZINC000506156755   -0.1200
     32 H32        -8.1254    3.4984   54.1618 H       1  ZINC000506156755    0.0700
     33 H33        -7.0368    4.6415   54.9842 H       1  ZINC000506156755    0.0600
     34 H34        -6.6321    4.0400   53.3586 H       1  ZINC000506156755    0.0700
     35 H35        -6.5936    2.6578   57.0447 H       1  ZINC000506156755    0.4000
     36 H36        -8.0504    1.5425   58.3998 H       1  ZINC000506156755    0.1300
     37 H37        -9.6288    1.3421   57.6019 H       1  ZINC000506156755    0.1300
     38 H38       -10.6706   -4.0008   57.5563 H       1  ZINC000506156755    0.1400
     39 H39        -9.3631   -5.9869   58.2061 H       1  ZINC000506156755    0.1400
     40 H40        -7.0230   -5.7567   58.9096 H       1  ZINC000506156755    0.1400
     41 H41        -5.9531   -3.5369   58.9735 H       1  ZINC000506156755    0.1400
     42 H42        -5.2601    3.9380   57.0354 H       1  ZINC000506156755    0.1300
     43 H43        -2.9091    4.5774   57.3858 H       1  ZINC000506156755    0.1300
     44 H44        -1.2090    4.0013   55.7020 H       1  ZINC000506156755    0.1300
     45 H45        -1.8567    2.7840   53.6629 H       1  ZINC000506156755    0.1300
     46 H46        -3.8053    4.5190   52.5553 H       1  ZINC000506156755    0.1300
     47 H47        -3.0449    5.3983   50.3858 H       1  ZINC000506156755    0.1300
     48 H48        -2.6784    3.8661   48.4948 H       1  ZINC000506156755    0.1300
     49 H49        -3.0708    1.4517   48.7684 H       1  ZINC000506156755    0.1300
     50 H50        -3.8256    0.5634   50.9363 H       1  ZINC000506156755    0.1300
@<TRIPOS>BOND
     1     1     2    1
     2     1    32    1
     3     1    33    1
     4     1    34    1
     5     2     3    1
     6     2     4    1
     7     2    19    1
     8     4     5   am
     9     4    35    1
    10     5     6    2
    11     5     7    1
    12     7     8    1
    13     7    36    1
    14     7    37    1
    15     8    17   am
    16     8     9   am
    17     9    10    2
    18     9    11    1
    19    11    16   ar
    20    11    12   ar
    21    12    13   ar
    22    12    38    1
    23    13    14   ar
    24    13    39    1
    25    14    15   ar
    26    14    40    1
    27    15    16   ar
    28    15    41    1
    29    16    17    1
    30    17    18    2
    31    19    24   ar
    32    19    20   ar
    33    20    21   ar
    34    20    42    1
    35    21    22   ar
    36    21    43    1
    37    22    23   ar
    38    22    44    1
    39    23    24   ar
    40    23    45    1
    41    24    25    1
    42    25    26    1
    43    26    31   ar
    44    26    27   ar
    45    27    28   ar
    46    27    46    1
    47    28    29   ar
    48    28    47    1
    49    29    30   ar
    50    29    48    1
    51    30    31   ar
    52    30    49    1
    53    31    50    1
@<TRIPOS>SUBSTRUCTURE
     1 ZINC000506156755        1 TEMP              0 ****  ****    0 ROOT


##########                                Name:    ZINC000263872566
##########                DOCK_Rotatable_Bonds:                   9
##########                         Heavy_Atoms:                  26
##########                    Molecular_Weight:             362.469
##########                DOCK_Rotatable_Bonds:                   9
##########                       Formal_Charge:           0.0300001
##########                     HBond_Acceptors:                   6
##########                        HBond_Donors:                   2
##########                         Heavy_Atoms:                  26
##########                          Grid_Score:          -31.361782
##########                     Grid_vdw_energy:          -30.075993
##########                      Grid_es_energy:           -1.285790
##########           Internal_energy_repulsive:           19.543007

@<TRIPOS>MOLECULE
ZINC000263872566
 56 57 1 0 0
SMALL
USER_CHARGES


@<TRIPOS>ATOM
      1 C1         -6.6988   -2.0735   58.6508 C.3     1  ZINC000263872566   -0.1800
      2 C2         -7.7346   -0.9683   58.8662 C.3     1  ZINC000263872566    0.1400
      3 H3         -8.7369   -1.3856   58.7689 H       1  ZINC000263872566    0.0700
      4 O4         -7.5746   -0.4137   60.1734 O.3     1  ZINC000263872566   -0.5600
      5 C5         -7.5381    0.1124   57.8345 C.ar    1  ZINC000263872566   -0.0800
      6 C6         -6.8333    1.2568   58.1579 C.ar    1  ZINC000263872566   -0.0900
      7 C7         -6.6530    2.2482   57.2117 C.ar    1  ZINC000263872566   -0.1000
      8 C8         -7.1771    2.0950   55.9417 C.ar    1  ZINC000263872566   -0.1100
      9 C9         -6.9809    3.1759   54.9101 C.3     1  ZINC000263872566    0.1800
     10 N10        -5.9238    2.7755   53.9781 N.am    1  ZINC000263872566   -0.7400
     11 C11        -6.2170    2.5548   52.6813 C.2     1  ZINC000263872566    0.7100
     12 O12        -7.3587    2.6881   52.2848 O.2     1  ZINC000263872566   -0.5900
     13 N13        -5.2446    2.1864   51.8238 N.am    1  ZINC000263872566   -0.6300
     14 C14        -5.5475    1.9480   50.4060 C.3     1  ZINC000263872566    0.1100
     15 C15        -4.6046    2.7999   49.5504 C.3     1  ZINC000263872566   -0.1200
     16 C16        -3.1559    2.5005   49.9426 C.3     1  ZINC000263872566   -0.0800
     17 C17        -2.2242    3.3116   49.0795 C.2     1  ZINC000263872566    0.4700
     18 O18        -1.3956    4.0268   49.5912 O.2     1  ZINC000263872566   -0.5000
     19 O19        -2.3148    3.2396   47.7422 O.3     1  ZINC000263872566   -0.3500
     20 C20        -1.3193    2.4351   47.0565 C.3     1  ZINC000263872566    0.1200
     21 C21        -0.0325    3.2464   46.8929 C.3     1  ZINC000263872566   -0.1800
     22 C22        -1.0280    1.1764   47.8762 C.3     1  ZINC000263872566   -0.1400
     23 C23        -1.8485    2.0347   45.6780 C.3     1  ZINC000263872566   -0.1800
     24 C24        -2.9375    2.8665   51.4125 C.3     1  ZINC000263872566   -0.1300
     25 C25        -3.8604    2.0212   52.2879 C.3     1  ZINC000263872566    0.1300
     26 C26        -7.8806    0.9499   55.6178 C.ar    1  ZINC000263872566   -0.1000
     27 C27        -8.0577   -0.0430   56.5629 C.ar    1  ZINC000263872566   -0.1100
     28 H28        -5.6966   -1.6562   58.7482 H       1  ZINC000263872566    0.0700
     29 H29        -6.8410   -2.8552   59.3971 H       1  ZINC000263872566    0.0600
     30 H30        -6.8209   -2.4966   57.6537 H       1  ZINC000263872566    0.0700
     31 H31        -8.2822    0.1921   60.4331 H       1  ZINC000263872566    0.3800
     32 H32        -6.4239    1.3766   59.1501 H       1  ZINC000263872566    0.1300
     33 H33        -6.1031    3.1426   57.4645 H       1  ZINC000263872566    0.1300
     34 H34        -7.9106    3.3277   54.3616 H       1  ZINC000263872566    0.0800
     35 H35        -6.6958    4.1038   55.4058 H       1  ZINC000263872566    0.0800
     36 H36        -5.0130    2.6691   54.2943 H       1  ZINC000263872566    0.4000
     37 H37        -5.3998    0.8935   50.1731 H       1  ZINC000263872566    0.0800
     38 H38        -6.5807    2.2285   50.2009 H       1  ZINC000263872566    0.0800
     39 H39        -4.7532    2.5610   48.4974 H       1  ZINC000263872566    0.0900
     40 H40        -4.8159    3.8560   49.7176 H       1  ZINC000263872566    0.0800
     41 H41        -2.9527    1.4393   49.7987 H       1  ZINC000263872566    0.1100
     42 H42         0.3445    3.5316   47.8750 H       1  ZINC000263872566    0.0600
     43 H43         0.7148    2.6425   46.3781 H       1  ZINC000263872566    0.0700
     44 H44        -0.2401    4.1431   46.3089 H       1  ZINC000263872566    0.0800
     45 H45        -1.9446    0.5985   47.9927 H       1  ZINC000263872566    0.0700
     46 H46        -0.2806    0.5726   47.3614 H       1  ZINC000263872566    0.0800
     47 H47        -0.6509    1.4617   48.8583 H       1  ZINC000263872566    0.0700
     48 H48        -2.0561    2.9314   45.0939 H       1  ZINC000263872566    0.0800
     49 H49        -1.1013    1.4308   45.1632 H       1  ZINC000263872566    0.0700
     50 H50        -2.7653    1.4567   45.7944 H       1  ZINC000263872566    0.0600
     51 H51        -1.8996    2.6748   51.6847 H       1  ZINC000263872566    0.0900
     52 H52        -3.1645    3.9219   51.5622 H       1  ZINC000263872566    0.0700
     53 H53        -3.7800    2.3473   53.3249 H       1  ZINC000263872566    0.1000
     54 H54        -3.5777    0.9714   52.2098 H       1  ZINC000263872566    0.0700
     55 H55        -8.2897    0.8301   54.6255 H       1  ZINC000263872566    0.1300
     56 H56        -8.6073   -0.9376   56.3099 H       1  ZINC000263872566    0.1300
@<TRIPOS>BOND
     1     1     2    1
     2     1    28    1
     3     1    29    1
     4     1    30    1
     5     2     3    1
     6     2     4    1
     7     2     5    1
     8     4    31    1
     9     5    27   ar
    10     5     6   ar
    11     6     7   ar
    12     6    32    1
    13     7     8   ar
    14     7    33    1
    15     8     9    1
    16     8    26   ar
    17     9    10    1
    18     9    34    1
    19     9    35    1
    20    10    11   am
    21    10    36    1
    22    11    12    2
    23    11    13   am
    24    13    25    1
    25    13    14    1
    26    14    15    1
    27    14    37    1
    28    14    38    1
    29    15    16    1
    30    15    39    1
    31    15    40    1
    32    16    17    1
    33    16    24    1
    34    16    41    1
    35    17    18    2
    36    17    19    1
    37    19    20    1
    38    20    21    1
    39    20    22    1
    40    20    23    1
    41    21    42    1
    42    21    43    1
    43    21    44    1
    44    22    45    1
    45    22    46    1
    46    22    47    1
    47    23    48    1
    48    23    49    1
    49    23    50    1
    50    24    25    1
    51    24    51    1
    52    24    52    1
    53    25    53    1
    54    25    54    1
    55    26    27   ar
    56    26    55    1
    57    27    56    1
@<TRIPOS>SUBSTRUCTURE
     1 ZINC000263872566        1 TEMP              0 ****  ****    0 ROOT


##########                                Name:    ZINC000811540126
##########                DOCK_Rotatable_Bonds:                   7
##########                         Heavy_Atoms:                  21
##########                    Molecular_Weight:             397.212
##########                DOCK_Rotatable_Bonds:                   7
##########                       Formal_Charge:           0.0100001
##########                     HBond_Acceptors:                   4
##########                        HBond_Donors:                   3
##########                         Heavy_Atoms:                  21
##########                          Grid_Score:          -31.351954
##########                     Grid_vdw_energy:          -28.800797
##########                      Grid_es_energy:           -2.551158
##########           Internal_energy_repulsive:           13.284567

@<TRIPOS>MOLECULE
ZINC000811540126
 37 38 1 0 0
SMALL
USER_CHARGES


@<TRIPOS>ATOM
      1 C1         -6.2123    3.9914   51.5677 C.3     1  ZINC000811540126   -0.1600
      2 C2         -6.2563    3.7550   50.0567 C.3     1  ZINC000811540126    0.1200
      3 H3         -6.0958    4.6993   49.5364 H       1  ZINC000811540126    0.1000
      4 N4         -5.2064    2.8053   49.6801 N.am    1  ZINC000811540126   -0.7200
      5 C5         -3.9304    3.2231   49.5626 C.2     1  ZINC000811540126    0.5700
      6 O6         -3.6510    4.3886   49.7676 O.2     1  ZINC000811540126   -0.5100
      7 C7         -2.8727    2.2663   49.1851 C.ar    1  ZINC000811540126   -0.1600
      8 C8         -2.6790    1.9264   47.8443 C.ar    1  ZINC000811540126   -0.0400
      9 C9         -1.6888    1.0316   47.4982 C.ar    1  ZINC000811540126   -0.1200
     10 I10        -1.3995    0.5227   45.4867 I       1  ZINC000811540126   -0.0300
     11 C11        -0.8840    0.4677   48.4749 C.ar    1  ZINC000811540126   -0.0400
     12 C12        -1.0654    0.7950   49.8042 C.ar    1  ZINC000811540126   -0.1500
     13 C13        -2.0527    1.6975   50.1695 C.ar    1  ZINC000811540126    0.1900
     14 O14        -2.2316    2.0203   51.4749 O.3     1  ZINC000811540126   -0.4700
     15 C15        -7.6223    3.1850   49.6694 C.3     1  ZINC000811540126    0.1400
     16 H16        -7.5298    2.6167   48.7439 H       1  ZINC000811540126    0.1300
     17 O17        -8.5492    4.2561   49.4801 O.3     1  ZINC000811540126   -0.5400
     18 C18        -8.1185    2.2797   50.7673 C.ar    1  ZINC000811540126   -0.1200
     19 C19        -7.7309    0.9532   50.7972 C.ar    1  ZINC000811540126   -0.1100
     20 C20        -8.1860    0.1227   51.8043 C.ar    1  ZINC000811540126   -0.1100
     21 C21        -9.0284    0.6189   52.7816 C.ar    1  ZINC000811540126   -0.1200
     22 C22        -9.4152    1.9457   52.7521 C.ar    1  ZINC000811540126   -0.1100
     23 C23        -8.9566    2.7772   51.7475 C.ar    1  ZINC000811540126   -0.1100
     24 H24        -5.2391    4.3974   51.8437 H       1  ZINC000811540126    0.0600
     25 H25        -6.9935    4.6979   51.8479 H       1  ZINC000811540126    0.0700
     26 H26        -6.3728    3.0471   52.0880 H       1  ZINC000811540126    0.0700
     27 H27        -5.4295    1.8758   49.5155 H       1  ZINC000811540126    0.3900
     28 H28        -3.3042    2.3636   47.0798 H       1  ZINC000811540126    0.1300
     29 H29        -0.1105   -0.2321   48.1952 H       1  ZINC000811540126    0.1400
     30 H30        -0.4343    0.3511   50.5599 H       1  ZINC000811540126    0.1500
     31 H31        -1.5489    1.6706   52.0638 H       1  ZINC000811540126    0.4000
     32 H32        -9.3151    4.0223   48.9381 H       1  ZINC000811540126    0.3700
     33 H33        -7.0729    0.5655   50.0337 H       1  ZINC000811540126    0.1100
     34 H34        -7.8838   -0.9140   51.8273 H       1  ZINC000811540126    0.1200
     35 H35        -9.3845   -0.0301   53.5680 H       1  ZINC000811540126    0.1200
     36 H36       -10.0736    2.3333   53.5156 H       1  ZINC000811540126    0.1300
     37 H37        -9.2589    3.8138   51.7245 H       1  ZINC000811540126    0.1200
@<TRIPOS>BOND
     1     1     2    1
     2     1    24    1
     3     1    25    1
     4     1    26    1
     5     2     3    1
     6     2     4    1
     7     2    15    1
     8     4     5   am
     9     4    27    1
    10     5     6    2
    11     5     7    1
    12     7    13   ar
    13     7     8   ar
    14     8     9   ar
    15     8    28    1
    16     9    10    1
    17     9    11   ar
    18    11    12   ar
    19    11    29    1
    20    12    13   ar
    21    12    30    1
    22    13    14    1
    23    14    31    1
    24    15    16    1
    25    15    17    1
    26    15    18    1
    27    17    32    1
    28    18    23   ar
    29    18    19   ar
    30    19    20   ar
    31    19    33    1
    32    20    21   ar
    33    20    34    1
    34    21    22   ar
    35    21    35    1
    36    22    23   ar
    37    22    36    1
    38    23    37    1
@<TRIPOS>SUBSTRUCTURE
     1 ZINC000811540126        1 TEMP              0 ****  ****    0 ROOT


##########                                Name:    ZINC000809503567
##########                DOCK_Rotatable_Bonds:                   9
##########                         Heavy_Atoms:                  26
##########                    Molecular_Weight:             353.378
##########                DOCK_Rotatable_Bonds:                   9
##########                       Formal_Charge:          -0.0200002
##########                     HBond_Acceptors:                   7
##########                        HBond_Donors:                   1
##########                         Heavy_Atoms:                  26
##########                          Grid_Score:          -31.312517
##########                     Grid_vdw_energy:          -31.089432
##########                      Grid_es_energy:           -0.223085
##########           Internal_energy_repulsive:           12.388315

@<TRIPOS>MOLECULE
ZINC000809503567
 45 46 1 0 0
SMALL
USER_CHARGES


@<TRIPOS>ATOM
      1 C1         -8.7040   -5.7771   58.3550 C.3     1  ZINC000809503567    0.0200
      2 O2         -8.4531   -4.7927   57.3498 O.3     1  ZINC000809503567   -0.3100
      3 C3         -8.2971   -3.5112   57.7680 C.ar    1  ZINC000809503567    0.1900
      4 C4         -7.1789   -3.1499   58.5028 C.ar    1  ZINC000809503567   -0.2100
      5 C5         -7.0213   -1.8449   58.9280 C.ar    1  ZINC000809503567   -0.0200
      6 C6         -7.9766   -0.8892   58.6251 C.ar    1  ZINC000809503567   -0.1500
      7 C7         -7.7927    0.5306   59.0955 C.3     1  ZINC000809503567    0.1700
      8 N8         -6.7871    1.1947   58.2624 N.am    1  ZINC000809503567   -0.7000
      9 C9         -7.1128    2.3027   57.5676 C.2     1  ZINC000809503567    0.5100
     10 O10        -8.2391    2.7494   57.6309 O.2     1  ZINC000809503567   -0.4900
     11 C11        -6.0864    2.9811   56.7191 C.2     1  ZINC000809503567    0.5100
     12 O12        -5.2474    3.6914   57.2331 O.2     1  ZINC000809503567   -0.5000
     13 N13        -6.0926    2.8040   55.3831 N.am    1  ZINC000809503567   -0.4600
     14 C14        -7.1043    1.9451   54.7626 C.3     1  ZINC000809503567    0.0800
     15 O15        -5.1211    3.4482   54.5790 O.3     1  ZINC000809503567   -0.1100
     16 C16        -5.6343    3.9660   53.3500 C.3     1  ZINC000809503567    0.0800
     17 C17        -5.0227    3.2162   52.1947 C.ar    1  ZINC000809503567   -0.0900
     18 C18        -5.1458    3.7081   50.9087 C.ar    1  ZINC000809503567   -0.1000
     19 C19        -4.5848    3.0203   49.8489 C.ar    1  ZINC000809503567   -0.1300
     20 C20        -3.9002    1.8408   50.0751 C.ar    1  ZINC000809503567   -0.1100
     21 C21        -3.7764    1.3493   51.3613 C.ar    1  ZINC000809503567   -0.1300
     22 C22        -4.3338    2.0394   52.4215 C.ar    1  ZINC000809503567   -0.0800
     23 C23        -9.0949   -1.2309   57.8948 C.ar    1  ZINC000809503567   -0.0100
     24 C24        -9.2637   -2.5454   57.4537 C.ar    1  ZINC000809503567   -0.0600
     25 C25       -10.4229   -2.9071   56.6948 C.1     1  ZINC000809503567    0.2600
     26 N26       -11.3425   -3.1941   56.0927 N.1     1  ZINC000809503567   -0.4100
     27 H27        -9.6230   -5.5284   58.8857 H       1  ZINC000809503567    0.0600
     28 H28        -8.8084   -6.7559   57.8868 H       1  ZINC000809503567    0.1100
     29 H29        -7.8721   -5.7978   59.0589 H       1  ZINC000809503567    0.0600
     30 H30        -6.4297   -3.8895   58.7437 H       1  ZINC000809503567    0.1400
     31 H31        -6.1481   -1.5685   59.5003 H       1  ZINC000809503567    0.1400
     32 H32        -8.7396    1.0648   59.0172 H       1  ZINC000809503567    0.0900
     33 H33        -7.4610    0.5293   60.1338 H       1  ZINC000809503567    0.0900
     34 H34        -5.8870    0.8369   58.2108 H       1  ZINC000809503567    0.4100
     35 H35        -7.9788    2.5421   54.5042 H       1  ZINC000809503567    0.0800
     36 H36        -6.6932    1.4933   53.8599 H       1  ZINC000809503567    0.0800
     37 H37        -7.3935    1.1608   55.4621 H       1  ZINC000809503567    0.0900
     38 H38        -6.7175    3.8451   53.3290 H       1  ZINC000809503567    0.0700
     39 H39        -5.3852    5.0240   53.2692 H       1  ZINC000809503567    0.0600
     40 H40        -5.6805    4.6295   50.7319 H       1  ZINC000809503567    0.1200
     41 H41        -4.6815    3.4042   48.8441 H       1  ZINC000809503567    0.1200
     42 H42        -3.4626    1.3031   49.2472 H       1  ZINC000809503567    0.1200
     43 H43        -3.2419    0.4276   51.5380 H       1  ZINC000809503567    0.1200
     44 H44        -4.2370    1.6554   53.4264 H       1  ZINC000809503567    0.1300
     45 H45        -9.8374   -0.4824   57.6608 H       1  ZINC000809503567    0.1400
@<TRIPOS>BOND
     1     1     2    1
     2     1    27    1
     3     1    28    1
     4     1    29    1
     5     2     3    1
     6     3    24   ar
     7     3     4   ar
     8     4     5   ar
     9     4    30    1
    10     5     6   ar
    11     5    31    1
    12     6     7    1
    13     6    23   ar
    14     7     8    1
    15     7    32    1
    16     7    33    1
    17     8     9   am
    18     8    34    1
    19     9    10    2
    20     9    11    1
    21    11    12    2
    22    11    13   am
    23    13    14    1
    24    13    15    1
    25    14    35    1
    26    14    36    1
    27    14    37    1
    28    15    16    1
    29    16    17    1
    30    16    38    1
    31    16    39    1
    32    17    22   ar
    33    17    18   ar
    34    18    19   ar
    35    18    40    1
    36    19    20   ar
    37    19    41    1
    38    20    21   ar
    39    20    42    1
    40    21    22   ar
    41    21    43    1
    42    22    44    1
    43    23    24   ar
    44    23    45    1
    45    24    25    1
    46    25    26    3
@<TRIPOS>SUBSTRUCTURE
     1 ZINC000809503567        1 TEMP              0 ****  ****    0 ROOT


##########                                Name:    ZINC001018437438
##########                DOCK_Rotatable_Bonds:                   8
##########                         Heavy_Atoms:                  24
##########                    Molecular_Weight:              333.39
##########                DOCK_Rotatable_Bonds:                   8
##########                       Formal_Charge:        -4.17233e-07
##########                     HBond_Acceptors:                   8
##########                        HBond_Donors:                   4
##########                         Heavy_Atoms:                  24
##########                          Grid_Score:          -31.304764
##########                     Grid_vdw_energy:          -30.219791
##########                      Grid_es_energy:           -1.084972
##########           Internal_energy_repulsive:           91.444008

@<TRIPOS>MOLECULE
ZINC001018437438
 47 49 1 0 0
SMALL
USER_CHARGES


@<TRIPOS>ATOM
      1 C1          2.1701    2.1814   48.9015 C.3     1  ZINC001018437438   -0.1400
      2 C2          0.8329    1.7108   49.4768 C.3     1  ZINC001018437438    0.1400
      3 H3          1.0002    0.8693   50.1491 H       1  ZINC001018437438    0.0700
      4 C4          0.1721    2.8590   50.2460 C.3     1  ZINC001018437438   -0.1300
      5 C5         -1.2242    2.4270   50.6998 C.3     1  ZINC001018437438   -0.1300
      6 C6         -2.0845    2.1081   49.4749 C.3     1  ZINC001018437438    0.1300
      7 H7         -2.1450    2.9875   48.8339 H       1  ZINC001018437438    0.1000
      8 N8         -3.4304    1.7256   49.9089 N.am    1  ZINC001018437438   -0.7200
      9 C9         -4.4956    2.4557   49.5234 C.2     1  ZINC001018437438    0.6000
     10 O10        -4.3397    3.4313   48.8140 O.2     1  ZINC001018437438   -0.5100
     11 C11        -5.8475    2.0725   49.9608 C.2     1  ZINC001018437438   -0.0400
     12 C12        -6.1812    1.0395   50.8195 C.2     1  ZINC001018437438   -0.1400
     13 C13        -7.5736    1.0792   50.9224 C.2     1  ZINC001018437438    0.0600
     14 C14        -8.4290    0.1526   51.7473 C.3     1  ZINC001018437438   -0.0800
     15 C15        -8.5615    0.4559   53.2411 C.3     1  ZINC001018437438   -0.1700
     16 C16        -9.7421    0.7092   52.3015 C.3     1  ZINC001018437438   -0.1600
     17 N17        -8.0033    2.0643   50.1759 N.2     1  ZINC001018437438   -0.2600
     18 N18        -7.0239    2.6687   49.6053 N.pl3   1  ZINC001018437438   -0.3800
     19 C19        -1.4493    0.9513   48.6970 C.3     1  ZINC001018437438    0.1000
     20 N20        -0.0561    1.2977   48.3825 N.am    1  ZINC001018437438   -0.6100
     21 C21         0.3957    1.2423   47.1139 C.2     1  ZINC001018437438    0.5200
     22 O22         1.5463    1.5352   46.8667 O.2     1  ZINC001018437438   -0.4800
     23 C23        -0.5290    0.8165   46.0027 C.3     1  ZINC001018437438   -0.1700
     24 C24        -1.4797    1.9410   45.6818 C.2     1  ZINC001018437438    0.5200
     25 N25        -2.6620    1.6760   45.0913 N.am    1  ZINC001018437438   -0.8600
     26 O26        -1.1810    3.0842   45.9549 O.2     1  ZINC001018437438   -0.5000
     27 H27         1.9923    2.9551   48.1547 H       1  ZINC001018437438    0.0700
     28 H28         2.7885    2.5854   49.7030 H       1  ZINC001018437438    0.0500
     29 H29         2.6825    1.3389   48.4370 H       1  ZINC001018437438    0.0800
     30 H30         0.7770    3.1084   51.1179 H       1  ZINC001018437438    0.0900
     31 H31         0.0903    3.7315   49.5979 H       1  ZINC001018437438    0.0700
     32 H32        -1.1435    1.5398   51.3279 H       1  ZINC001018437438    0.0700
     33 H33        -1.6869    3.2334   51.2686 H       1  ZINC001018437438    0.0800
     34 H34        -3.5549    0.9469   50.4737 H       1  ZINC001018437438    0.4000
     35 H35        -5.5081    0.3495   51.3064 H       1  ZINC001018437438    0.1700
     36 H36        -8.4140   -0.8947   51.4454 H       1  ZINC001018437438    0.1200
     37 H37        -8.6335   -0.3920   53.9224 H       1  ZINC001018437438    0.1000
     38 H38        -8.0298    1.3256   53.6272 H       1  ZINC001018437438    0.1000
     39 H39        -9.9871    1.7456   52.0693 H       1  ZINC001018437438    0.1000
     40 H40       -10.5907    0.0281   52.3645 H       1  ZINC001018437438    0.1000
     41 H41        -7.1076    3.4281   49.0077 H       1  ZINC001018437438    0.4400
     42 H42        -1.4704    0.0469   49.3050 H       1  ZINC001018437438    0.0700
     43 H43        -2.0023    0.7854   47.7724 H       1  ZINC001018437438    0.0900
     44 H44         0.0565    0.5718   45.1165 H       1  ZINC001018437438    0.1200
     45 H45        -1.0957   -0.0598   46.3172 H       1  ZINC001018437438    0.1200
     46 H46        -3.2735    2.3996   44.8837 H       1  ZINC001018437438    0.4000
     47 H47        -2.9013    0.7614   44.8741 H       1  ZINC001018437438    0.4000
@<TRIPOS>BOND
     1     1     2    1
     2     1    27    1
     3     1    28    1
     4     1    29    1
     5     2     3    1
     6     2    20    1
     7     2     4    1
     8     4     5    1
     9     4    30    1
    10     4    31    1
    11     5     6    1
    12     5    32    1
    13     5    33    1
    14     6     7    1
    15     6     8    1
    16     6    19    1
    17     8     9   am
    18     8    34    1
    19     9    10    2
    20     9    11    1
    21    11    18    1
    22    11    12    2
    23    12    13    1
    24    12    35    1
    25    13    14    1
    26    13    17    2
    27    14    16    1
    28    14    15    1
    29    14    36    1
    30    15    16    1
    31    15    37    1
    32    15    38    1
    33    16    39    1
    34    16    40    1
    35    17    18    1
    36    18    41    1
    37    19    20    1
    38    19    42    1
    39    19    43    1
    40    20    21   am
    41    21    22    2
    42    21    23    1
    43    23    24    1
    44    23    44    1
    45    23    45    1
    46    24    25   am
    47    24    26    2
    48    25    46    1
    49    25    47    1
@<TRIPOS>SUBSTRUCTURE
     1 ZINC001018437438        1 TEMP              0 ****  ****    0 ROOT


##########                                Name:    ZINC000331626032
##########                DOCK_Rotatable_Bonds:                   5
##########                         Heavy_Atoms:                  25
##########                    Molecular_Weight:              339.44
##########                DOCK_Rotatable_Bonds:                   5
##########                       Formal_Charge:        -2.16067e-07
##########                     HBond_Acceptors:                   6
##########                        HBond_Donors:                   2
##########                         Heavy_Atoms:                  25
##########                          Grid_Score:          -31.301746
##########                     Grid_vdw_energy:          -30.196571
##########                      Grid_es_energy:           -1.105174
##########           Internal_energy_repulsive:          133.796448

@<TRIPOS>MOLECULE
ZINC000331626032
 50 52 1 0 0
SMALL
USER_CHARGES


@<TRIPOS>ATOM
      1 C1         -6.2276    2.8692   53.1170 C.3     1  ZINC000331626032   -0.2000
      2 C2         -6.0538    2.4076   51.6686 C.3     1  ZINC000331626032    0.0700
      3 H3         -6.1449    1.3225   51.6198 H       1  ZINC000331626032    0.1100
      4 C4         -7.1175    3.0401   50.8087 C.2     1  ZINC000331626032    0.5200
      5 O5         -8.0481    2.3738   50.4071 O.2     1  ZINC000331626032   -0.5000
      6 N6         -7.0349    4.3460   50.4861 N.am    1  ZINC000331626032   -0.5800
      7 C7         -5.9110    5.1507   50.9711 C.3     1  ZINC000331626032    0.0800
      8 C8         -8.0226    4.9332   49.6876 C.ar    1  ZINC000331626032    0.1400
      9 C9         -8.1613    6.3147   49.6558 C.ar    1  ZINC000331626032   -0.1000
     10 C10        -9.1372    6.8912   48.8666 C.ar    1  ZINC000331626032   -0.1100
     11 C11        -9.9760    6.0945   48.1092 C.ar    1  ZINC000331626032   -0.1200
     12 C12        -9.8407    4.7187   48.1390 C.ar    1  ZINC000331626032   -0.1100
     13 C13        -8.8625    4.1363   48.9208 C.ar    1  ZINC000331626032   -0.1200
     14 N14        -4.7274    2.8101   51.1822 N.3     1  ZINC000331626032   -0.5100
     15 C15        -3.7364    2.7737   52.2651 C.3     1  ZINC000331626032    0.0500
     16 C16        -2.4057    3.3356   51.7598 C.3     1  ZINC000331626032   -0.1100
     17 C17        -1.9221    2.4991   50.5720 C.3     1  ZINC000331626032   -0.1100
     18 C18        -2.9931    2.5138   49.4778 C.3     1  ZINC000331626032   -0.0400
     19 H19        -3.1403    3.5351   49.1264 H       1  ZINC000331626032    0.1000
     20 C20        -2.5503    1.6453   48.3285 C.ar    1  ZINC000331626032    0.2300
     21 C21        -2.7222    2.0711   47.0210 C.ar    1  ZINC000331626032   -0.2900
     22 C22        -2.3011    1.2417   45.9932 C.ar    1  ZINC000331626032    0.1900
     23 N23        -1.7513    0.0757   46.2891 N.ar    1  ZINC000331626032   -0.5700
     24 C24        -1.6015   -0.3017   47.5505 C.ar    1  ZINC000331626032    0.5700
     25 N25        -1.0217   -1.5283   47.8242 N.pl3   1  ZINC000331626032   -0.8200
     26 N26        -1.9881    0.4696   48.5558 N.ar    1  ZINC000331626032   -0.5700
     27 C27        -4.3068    1.9757   50.0493 C.3     1  ZINC000331626032    0.0700
     28 H28        -6.1365    3.9543   53.1658 H       1  ZINC000331626032    0.0700
     29 H29        -7.2118    2.5706   53.4779 H       1  ZINC000331626032    0.0800
     30 H30        -5.4582    2.4117   53.7390 H       1  ZINC000331626032    0.0700
     31 H31        -5.0953    5.1082   50.2493 H       1  ZINC000331626032    0.0600
     32 H32        -6.2318    6.1849   51.0964 H       1  ZINC000331626032    0.0800
     33 H33        -5.5693    4.7577   51.9287 H       1  ZINC000331626032    0.0800
     34 H34        -7.5070    6.9375   50.2478 H       1  ZINC000331626032    0.1200
     35 H35        -9.2456    7.9655   48.8416 H       1  ZINC000331626032    0.1300
     36 H36       -10.7386    6.5478   47.4931 H       1  ZINC000331626032    0.1300
     37 H37       -10.4978    4.0990   47.5467 H       1  ZINC000331626032    0.1300
     38 H38        -8.7574    3.0616   48.9438 H       1  ZINC000331626032    0.1200
     39 H39        -4.0905    3.3758   53.1019 H       1  ZINC000331626032    0.0900
     40 H40        -3.5946    1.7439   52.5933 H       1  ZINC000331626032    0.0300
     41 H41        -2.5436    4.3698   51.4444 H       1  ZINC000331626032    0.0800
     42 H42        -1.6659    3.2940   52.5593 H       1  ZINC000331626032    0.0700
     43 H43        -0.9965    2.9218   50.1814 H       1  ZINC000331626032    0.0700
     44 H44        -1.7468    1.4732   50.8962 H       1  ZINC000331626032    0.0700
     45 H45        -3.1746    3.0283   46.8074 H       1  ZINC000331626032    0.1400
     46 H46        -2.4209    1.5437   44.9632 H       1  ZINC000331626032    0.1700
     47 H47        -0.7305   -2.1003   47.0970 H       1  ZINC000331626032    0.4100
     48 H48        -0.9065   -1.8159   48.7434 H       1  ZINC000331626032    0.4100
     49 H49        -4.1624    0.9497   50.3878 H       1  ZINC000331626032    0.0400
     50 H50        -5.0754    1.9983   49.2766 H       1  ZINC000331626032    0.0800
@<TRIPOS>BOND
     1     1     2    1
     2     1    28    1
     3     1    29    1
     4     1    30    1
     5     2     3    1
     6     2     4    1
     7     2    14    1
     8     4     5    2
     9     4     6   am
    10     6     7    1
    11     6     8    1
    12     7    31    1
    13     7    32    1
    14     7    33    1
    15     8    13   ar
    16     8     9   ar
    17     9    10   ar
    18     9    34    1
    19    10    11   ar
    20    10    35    1
    21    11    12   ar
    22    11    36    1
    23    12    13   ar
    24    12    37    1
    25    13    38    1
    26    14    27    1
    27    14    15    1
    28    15    16    1
    29    15    39    1
    30    15    40    1
    31    16    17    1
    32    16    41    1
    33    16    42    1
    34    17    18    1
    35    17    43    1
    36    17    44    1
    37    18    19    1
    38    18    20    1
    39    18    27    1
    40    20    26   ar
    41    20    21   ar
    42    21    22   ar
    43    21    45    1
    44    22    23   ar
    45    22    46    1
    46    23    24   ar
    47    24    25    1
    48    24    26   ar
    49    25    47    1
    50    25    48    1
    51    27    49    1
    52    27    50    1
@<TRIPOS>SUBSTRUCTURE
     1 ZINC000331626032        1 TEMP              0 ****  ****    0 ROOT


##########                                Name:    ZINC000543625960
##########                DOCK_Rotatable_Bonds:                   8
##########                         Heavy_Atoms:                  29
##########                    Molecular_Weight:             416.544
##########                DOCK_Rotatable_Bonds:                   8
##########                       Formal_Charge:           -0.010001
##########                     HBond_Acceptors:                   8
##########                        HBond_Donors:                   2
##########                         Heavy_Atoms:                  29
##########                          Grid_Score:          -31.288874
##########                     Grid_vdw_energy:          -30.865345
##########                      Grid_es_energy:           -0.423529
##########           Internal_energy_repulsive:           18.608030

@<TRIPOS>MOLECULE
ZINC000543625960
 57 59 1 0 0
SMALL
USER_CHARGES


@<TRIPOS>ATOM
      1 C1         -9.5028    5.2656   48.9251 C.3     1  ZINC000543625960   -0.1500
      2 C2         -9.7932    4.6008   50.2722 C.3     1  ZINC000543625960   -0.1300
      3 C3         -8.4736    4.2519   50.9637 C.3     1  ZINC000543625960    0.1500
      4 H4         -8.6804    3.7783   51.9233 H       1  ZINC000543625960    0.0800
      5 C5         -7.6628    5.5296   51.1897 C.3     1  ZINC000543625960   -0.1700
      6 N6         -7.7085    3.3309   50.1195 N.am    1  ZINC000543625960   -1.1100
      7 S7         -7.3343    1.8162   50.6741 S.o2    1  ZINC000543625960    2.7000
      8 O8         -8.5604    1.2230   51.0792 O.2     1  ZINC000543625960   -0.9600
      9 O9         -6.4729    1.2353   49.7047 O.2     1  ZINC000543625960   -0.9500
     10 C10        -6.3726    2.0191   52.1365 C.ar    1  ZINC000543625960   -0.6600
     11 C11        -4.9964    2.1201   52.0495 C.ar    1  ZINC000543625960   -0.0400
     12 C12        -4.2380    2.2794   53.1950 C.ar    1  ZINC000543625960   -0.1200
     13 C13        -4.8535    2.3381   54.4298 C.ar    1  ZINC000543625960   -0.0600
     14 C14        -6.2358    2.2374   54.5205 C.ar    1  ZINC000543625960    0.1500
     15 N15        -6.8626    2.2965   55.7704 N.am    1  ZINC000543625960   -0.6800
     16 C16        -7.6448    1.2786   56.1807 C.2     1  ZINC000543625960    0.7200
     17 O17        -7.8059    0.3089   55.4651 O.2     1  ZINC000543625960   -0.5600
     18 N18        -8.2486    1.3355   57.3844 N.am    1  ZINC000543625960   -0.6300
     19 C19        -8.1403    2.4458   58.3482 C.3     1  ZINC000543625960    0.0900
     20 C20        -9.4228    2.3479   59.2115 C.3     1  ZINC000543625960   -0.1000
     21 H21        -9.2694    2.7995   60.1916 H       1  ZINC000543625960    0.1000
     22 C22       -10.6152    2.9871   58.4969 C.3     1  ZINC000543625960   -0.1500
     23 C23        -9.6026    0.8112   59.3292 C.3     1  ZINC000543625960   -0.1200
     24 C24        -9.1291    0.3035   57.9510 C.3     1  ZINC000543625960    0.2000
     25 H25        -9.9884    0.1439   57.2996 H       1  ZINC000543625960    0.0900
     26 C26        -8.3640   -0.9845   58.1144 C.ar    1  ZINC000543625960   -0.1400
     27 C27        -8.8881   -2.1773   57.6409 C.ar    1  ZINC000543625960   -0.0600
     28 C28        -8.1485   -3.3376   57.8131 C.ar    1  ZINC000543625960   -0.1700
     29 C29        -6.9225   -3.2670   58.4464 C.ar    1  ZINC000543625960    0.1000
     30 N30        -6.4548   -2.1142   58.8843 N.ar    1  ZINC000543625960   -0.4800
     31 C31        -7.1280   -0.9905   58.7333 C.ar    1  ZINC000543625960    0.1200
     32 C32        -6.9947    2.0828   53.3682 C.ar    1  ZINC000543625960   -0.0500
     33 H33       -10.4429    5.5141   48.4326 H       1  ZINC000543625960    0.0600
     34 H34        -8.9252    6.1758   49.0861 H       1  ZINC000543625960    0.0600
     35 H35        -8.9336    4.5803   48.2970 H       1  ZINC000543625960    0.0500
     36 H36       -10.3624    5.2861   50.9004 H       1  ZINC000543625960    0.0700
     37 H37       -10.3708    3.6906   50.1113 H       1  ZINC000543625960    0.0800
     38 H38        -8.2321    6.2147   51.8178 H       1  ZINC000543625960    0.0700
     39 H39        -6.7228    5.2810   51.6823 H       1  ZINC000543625960    0.0700
     40 H40        -7.4559    6.0032   50.2300 H       1  ZINC000543625960    0.0600
     41 H41        -7.4210    3.6085   49.2356 H       1  ZINC000543625960    0.4200
     42 H42        -4.5126    2.0741   51.0851 H       1  ZINC000543625960    0.1400
     43 H43        -3.1633    2.3576   53.1238 H       1  ZINC000543625960    0.1400
     44 H44        -4.2607    2.4619   55.3240 H       1  ZINC000543625960    0.1400
     45 H45        -6.7341    3.0700   56.3413 H       1  ZINC000543625960    0.4100
     46 H46        -7.2539    2.3230   58.9704 H       1  ZINC000543625960    0.0700
     47 H47        -8.1078    3.4011   57.8243 H       1  ZINC000543625960    0.0800
     48 H48       -10.7741    2.4904   57.5398 H       1  ZINC000543625960    0.0600
     49 H49       -11.5077    2.8816   59.1138 H       1  ZINC000543625960    0.0600
     50 H50       -10.4132    4.0449   58.3282 H       1  ZINC000543625960    0.0600
     51 H51        -8.9781    0.4099   60.1274 H       1  ZINC000543625960    0.0800
     52 H52       -10.6498    0.5568   59.4924 H       1  ZINC000543625960    0.0900
     53 H53        -9.8497   -2.2024   57.1500 H       1  ZINC000543625960    0.1300
     54 H54        -8.5263   -4.2848   57.4571 H       1  ZINC000543625960    0.1400
     55 H55        -6.3405   -4.1662   58.5847 H       1  ZINC000543625960    0.1600
     56 H56        -6.7127   -0.0654   59.1052 H       1  ZINC000543625960    0.1400
     57 H57        -8.0699    2.0042   53.4354 H       1  ZINC000543625960    0.1400
@<TRIPOS>BOND
     1     1     2    1
     2     1    33    1
     3     1    34    1
     4     1    35    1
     5     2     3    1
     6     2    36    1
     7     2    37    1
     8     3     4    1
     9     3     5    1
    10     3     6    1
    11     5    38    1
    12     5    39    1
    13     5    40    1
    14     6     7   am
    15     6    41    1
    16     7     8    2
    17     7     9    2
    18     7    10    1
    19    10    32   ar
    20    10    11   ar
    21    11    12   ar
    22    11    42    1
    23    12    13   ar
    24    12    43    1
    25    13    14   ar
    26    13    44    1
    27    14    15    1
    28    14    32   ar
    29    15    16   am
    30    15    45    1
    31    16    17    2
    32    16    18   am
    33    18    24    1
    34    18    19    1
    35    19    20    1
    36    19    46    1
    37    19    47    1
    38    20    21    1
    39    20    22    1
    40    20    23    1
    41    22    48    1
    42    22    49    1
    43    22    50    1
    44    23    24    1
    45    23    51    1
    46    23    52    1
    47    24    25    1
    48    24    26    1
    49    26    31   ar
    50    26    27   ar
    51    27    28   ar
    52    27    53    1
    53    28    29   ar
    54    28    54    1
    55    29    30   ar
    56    29    55    1
    57    30    31   ar
    58    31    56    1
    59    32    57    1
@<TRIPOS>SUBSTRUCTURE
     1 ZINC000543625960        1 TEMP              0 ****  ****    0 ROOT


##########                                Name:    ZINC000266467123
##########                DOCK_Rotatable_Bonds:                   9
##########                         Heavy_Atoms:                  25
##########                    Molecular_Weight:             337.421
##########                DOCK_Rotatable_Bonds:                   9
##########                       Formal_Charge:                0.02
##########                     HBond_Acceptors:                   5
##########                        HBond_Donors:                   3
##########                         Heavy_Atoms:                  25
##########                          Grid_Score:          -31.288277
##########                     Grid_vdw_energy:          -30.228962
##########                      Grid_es_energy:           -1.059314
##########           Internal_energy_repulsive:           11.527158

@<TRIPOS>MOLECULE
ZINC000266467123
 48 50 1 0 0
SMALL
USER_CHARGES


@<TRIPOS>ATOM
      1 C1         -7.4624   -1.4209   58.9123 C.3     1  <0>        -0.1600
      2 C2         -8.1969   -1.7115   57.6019 C.3     1  <0>         0.1500
      3 H3         -7.5702   -2.3355   56.9649 H       1  <0>         0.1200
      4 N4         -8.4883   -0.4505   56.9155 N.am    1  <0>        -0.7300
      5 C5         -9.0579   -0.4640   55.6940 C.2     1  <0>         0.7100
      6 O6         -9.3311   -1.5227   55.1624 O.2     1  <0>        -0.5900
      7 N7         -9.3245    0.6960   55.0620 N.am    1  <0>        -0.7100
      8 C8         -9.9452    0.6814   53.7350 C.3     1  <0>         0.1100
      9 H9        -11.0323    0.6019   53.7253 H       1  <0>         0.1400
     10 C10        -9.1767   -0.0036   52.6031 C.3     1  <0>        -0.1900
     11 C11        -9.2886    1.5226   52.6386 C.3     1  <0>        -0.1500
     12 H12        -9.9435    1.9964   51.9074 H       1  <0>         0.1200
     13 C13        -8.0336    2.3145   53.0112 C.3     1  <0>        -0.0500
     14 C14        -7.0466    2.2560   51.8738 C.ar    1  <0>        -0.0800
     15 C15        -5.7499    1.8363   52.1048 C.ar    1  <0>        -0.1100
     16 C16        -4.8447    1.7826   51.0616 C.ar    1  <0>        -0.1200
     17 C17        -5.2360    2.1483   49.7872 C.ar    1  <0>        -0.1200
     18 C18        -6.5330    2.5671   49.5561 C.ar    1  <0>        -0.1200
     19 C19        -7.4396    2.6167   50.5985 C.ar    1  <0>        -0.1200
     20 C20        -9.4869   -2.4319   57.8983 C.2     1  <0>         0.5100
     21 O21        -9.4920   -3.6377   58.0286 O.2     1  <0>        -0.5100
     22 N22       -10.6349   -1.7362   58.0186 N.am    1  <0>        -0.6700
     23 C23       -11.8328   -2.4052   58.2938 C.ar    1  <0>         0.1400
     24 C24       -12.5518   -2.9970   57.2635 C.ar    1  <0>        -0.1400
     25 C25       -13.7338   -3.6565   57.5385 C.ar    1  <0>        -0.1000
     26 C26       -14.2016   -3.7275   58.8378 C.ar    1  <0>        -0.1300
     27 C27       -13.4881   -3.1389   59.8658 C.ar    1  <0>        -0.1000
     28 C28       -12.3021   -2.4837   59.5984 C.ar    1  <0>        -0.1200
     29 H29        -7.2455   -2.3590   59.4230 H       1  <0>         0.0700
     30 H30        -6.5293   -0.8997   58.6979 H       1  <0>         0.0800
     31 H31        -8.0891   -0.7967   59.5493 H       1  <0>         0.0700
     32 H32        -8.2715    0.3943   57.3402 H       1  <0>         0.4100
     33 H33        -9.1054    1.5407   55.4856 H       1  <0>         0.4000
     34 H34        -8.2093   -0.4433   52.8458 H       1  <0>         0.1000
     35 H35        -9.7582   -0.5333   51.8486 H       1  <0>         0.1000
     36 H36        -8.3033    3.3526   53.2052 H       1  <0>         0.0800
     37 H37        -7.5837    1.8829   53.9052 H       1  <0>         0.0700
     38 H38        -5.4441    1.5507   53.1004 H       1  <0>         0.1200
     39 H39        -3.8313    1.4554   51.2422 H       1  <0>         0.1200
     40 H40        -4.5286    2.1070   48.9723 H       1  <0>         0.1200
     41 H41        -6.8388    2.8531   48.5605 H       1  <0>         0.1200
     42 H42        -8.4528    2.9439   50.4179 H       1  <0>         0.1200
     43 H43       -10.6309   -0.7719   57.9144 H       1  <0>         0.4100
     44 H44       -12.1873   -2.9412   56.2485 H       1  <0>         0.1300
     45 H45       -14.2934   -4.1169   56.7377 H       1  <0>         0.1300
     46 H46       -15.1262   -4.2435   59.0503 H       1  <0>         0.1200
     47 H47       -13.8565   -3.1955   60.8795 H       1  <0>         0.1300
     48 H48       -11.7453   -2.0241   60.4017 H       1  <0>         0.1400
@<TRIPOS>BOND
     1     1     2    1
     2     1    29    1
     3     1    30    1
     4     1    31    1
     5     2     3    1
     6     2     4    1
     7     2    20    1
     8     4     5   am
     9     4    32    1
    10     5     6    2
    11     5     7   am
    12     7     8    1
    13     7    33    1
    14     8     9    1
    15     8    11    1
    16     8    10    1
    17    10    11    1
    18    10    34    1
    19    10    35    1
    20    11    12    1
    21    11    13    1
    22    13    14    1
    23    13    36    1
    24    13    37    1
    25    14    19   ar
    26    14    15   ar
    27    15    16   ar
    28    15    38    1
    29    16    17   ar
    30    16    39    1
    31    17    18   ar
    32    17    40    1
    33    18    19   ar
    34    18    41    1
    35    19    42    1
    36    20    21    2
    37    20    22   am
    38    22    23    1
    39    22    43    1
    40    23    28   ar
    41    23    24   ar
    42    24    25   ar
    43    24    44    1
    44    25    26   ar
    45    25    45    1
    46    26    27   ar
    47    26    46    1
    48    27    28   ar
    49    27    47    1
    50    28    48    1
@<TRIPOS>SUBSTRUCTURE
     1 <0>         1 TEMP              0 ****  ****    0 ROOT


##########                                Name:    ZINC000505965769
##########                DOCK_Rotatable_Bonds:                   9
##########                         Heavy_Atoms:                  29
##########                    Molecular_Weight:              419.88
##########                DOCK_Rotatable_Bonds:                   9
##########                       Formal_Charge:               -0.02
##########                     HBond_Acceptors:                   7
##########                        HBond_Donors:                   1
##########                         Heavy_Atoms:                  29
##########                          Grid_Score:          -31.284752
##########                     Grid_vdw_energy:          -31.286415
##########                      Grid_es_energy:            0.001662
##########           Internal_energy_repulsive:            9.382644

@<TRIPOS>MOLECULE
ZINC000505965769
 52 54 1 0 0
SMALL
USER_CHARGES


@<TRIPOS>ATOM
      1 C1         -3.2705    3.0852   49.5981 C.3     1  ZINC000505965769    0.0200
      2 O2         -4.1933    1.9941   49.5913 O.3     1  ZINC000505965769   -0.3100
      3 C3         -5.2488    2.0748   50.4398 C.ar    1  ZINC000505965769    0.1800
      4 C4         -6.5358    2.2196   49.9326 C.ar    1  ZINC000505965769   -0.2200
      5 C5         -7.6044    2.3013   50.7792 C.ar    1  ZINC000505965769   -0.0200
      6 C6         -7.4074    2.2396   52.1643 C.ar    1  ZINC000505965769   -0.2100
      7 C7         -8.5542    2.3267   53.0760 C.2     1  ZINC000505965769    0.3900
      8 O8         -8.9296    3.4083   53.4768 O.2     1  ZINC000505965769   -0.4400
      9 C9         -9.2653    1.0724   53.5143 C.3     1  ZINC000505965769   -0.1500
     10 C10        -9.7923    1.2562   54.9389 C.3     1  ZINC000505965769   -0.1300
     11 C11       -10.1637   -0.0862   55.5143 C.2     1  ZINC000505965769    0.5200
     12 O12       -10.5304   -0.9798   54.7809 O.2     1  ZINC000505965769   -0.5300
     13 N13       -10.0881   -0.2937   56.8439 N.am    1  ZINC000505965769   -0.7200
     14 C14       -10.4508   -1.5981   57.4034 C.3     1  ZINC000505965769    0.1900
     15 H15       -11.0320   -2.1587   56.6712 H       1  ZINC000505965769    0.1100
     16 C16        -9.1986   -2.3644   57.7437 C.ar    1  ZINC000505965769   -0.1000
     17 C17        -8.0559   -1.6861   58.1249 C.ar    1  ZINC000505965769   -0.0900
     18 C18        -6.9070   -2.3878   58.4373 C.ar    1  ZINC000505965769   -0.1500
     19 C19        -6.9008   -3.7706   58.3689 C.ar    1  ZINC000505965769    0.1000
     20 F20        -5.7784   -4.4576   58.6744 F       1  ZINC000505965769   -0.1400
     21 C21        -8.0461   -4.4490   57.9874 C.ar    1  ZINC000505965769   -0.1500
     22 C22        -9.1952   -3.7454   57.6802 C.ar    1  ZINC000505965769   -0.0600
     23 C23       -11.2850   -1.3957   58.6699 C.3     1  ZINC000505965769    0.0800
     24 H24       -10.7417   -0.7785   59.3854 H       1  ZINC000505965769    0.0700
     25 C25       -12.6452   -0.7417   58.3192 C.3     1  ZINC000505965769   -0.1500
     26 C26       -13.5166   -1.2145   59.5146 C.3     1  ZINC000505965769   -0.1600
     27 C27       -12.9401   -2.6167   59.8058 C.3     1  ZINC000505965769    0.0500
     28 O28       -11.6166   -2.6644   59.2565 O.3     1  ZINC000505965769   -0.3700
     29 C29        -6.1103    2.0937   52.6767 C.ar    1  ZINC000505965769    0.0500
     30 Cl30       -5.8543    2.0160   54.3918 Cl      1  ZINC000505965769   -0.0200
     31 C31        -5.0403    2.0070   51.8127 C.ar    1  ZINC000505965769   -0.1600
     32 H32        -2.8387    3.1896   50.5934 H       1  ZINC000505965769    0.0600
     33 H33        -2.4767    2.8942   48.8759 H       1  ZINC000505965769    0.1100
     34 H34        -3.7922    4.0040   49.3301 H       1  ZINC000505965769    0.0600
     35 H35        -6.6908    2.2679   48.8649 H       1  ZINC000505965769    0.1400
     36 H36        -8.6018    2.4141   50.3802 H       1  ZINC000505965769    0.1500
     37 H37       -10.0993    0.8735   52.8413 H       1  ZINC000505965769    0.1100
     38 H38        -8.5703    0.2332   53.4896 H       1  ZINC000505965769    0.1100
     39 H39        -9.0195    1.7148   55.5559 H       1  ZINC000505965769    0.1000
     40 H40       -10.6720    1.8997   54.9207 H       1  ZINC000505965769    0.1000
     41 H41        -9.7936    0.4207   57.4303 H       1  ZINC000505965769    0.4000
     42 H42        -8.0609   -0.6074   58.1782 H       1  ZINC000505965769    0.1300
     43 H43        -6.0142   -1.8577   58.7344 H       1  ZINC000505965769    0.1400
     44 H44        -8.0423   -5.5276   57.9334 H       1  ZINC000505965769    0.1400
     45 H45       -10.0888   -4.2743   57.3830 H       1  ZINC000505965769    0.1400
     46 H46       -12.5645    0.3451   58.2975 H       1  ZINC000505965769    0.0700
     47 H47       -13.0330   -1.1239   57.3749 H       1  ZINC000505965769    0.1000
     48 H48       -13.3872   -0.5559   60.3735 H       1  ZINC000505965769    0.0700
     49 H49       -14.5663   -1.2785   59.2281 H       1  ZINC000505965769    0.0800
     50 H50       -12.8983   -2.7830   60.8823 H       1  ZINC000505965769    0.0700
     51 H51       -13.5639   -3.3777   59.3369 H       1  ZINC000505965769    0.0700
     52 H52        -4.0393    1.8942   52.2022 H       1  ZINC000505965769    0.1500
@<TRIPOS>BOND
     1     1     2    1
     2     1    32    1
     3     1    33    1
     4     1    34    1
     5     2     3    1
     6     3    31   ar
     7     3     4   ar
     8     4     5   ar
     9     4    35    1
    10     5     6   ar
    11     5    36    1
    12     6     7    1
    13     6    29   ar
    14     7     8    2
    15     7     9    1
    16     9    10    1
    17     9    37    1
    18     9    38    1
    19    10    11    1
    20    10    39    1
    21    10    40    1
    22    11    12    2
    23    11    13   am
    24    13    14    1
    25    13    41    1
    26    14    15    1
    27    14    16    1
    28    14    23    1
    29    16    22   ar
    30    16    17   ar
    31    17    18   ar
    32    17    42    1
    33    18    19   ar
    34    18    43    1
    35    19    20    1
    36    19    21   ar
    37    21    22   ar
    38    21    44    1
    39    22    45    1
    40    23    24    1
    41    23    28    1
    42    23    25    1
    43    25    26    1
    44    25    46    1
    45    25    47    1
    46    26    27    1
    47    26    48    1
    48    26    49    1
    49    27    28    1
    50    27    50    1
    51    27    51    1
    52    29    30    1
    53    29    31   ar
    54    31    52    1
@<TRIPOS>SUBSTRUCTURE
     1 ZINC000505965769        1 TEMP              0 ****  ****    0 ROOT


##########                                Name:    ZINC000550217006
##########                DOCK_Rotatable_Bonds:                   7
##########                         Heavy_Atoms:                  27
##########                    Molecular_Weight:             367.404
##########                DOCK_Rotatable_Bonds:                   7
##########                       Formal_Charge:          0.00999951
##########                     HBond_Acceptors:                   7
##########                        HBond_Donors:                   3
##########                         Heavy_Atoms:                  27
##########                          Grid_Score:          -31.264961
##########                     Grid_vdw_energy:          -31.042826
##########                      Grid_es_energy:           -0.222135
##########           Internal_energy_repulsive:           20.810858

@<TRIPOS>MOLECULE
ZINC000550217006
 48 50 1 0 0
SMALL
USER_CHARGES


@<TRIPOS>ATOM
      1 C1         -1.9065    1.4495   47.8851 C.3     1  ZINC000550217006   -0.1500
      2 C2         -3.1556    2.1739   47.3790 C.3     1  ZINC000550217006    0.0500
      3 O3         -4.1761    2.1181   48.3777 O.3     1  ZINC000550217006   -0.3100
      4 C4         -3.9895    2.8717   49.4932 C.ar    1  ZINC000550217006    0.1400
      5 C5         -3.0050    3.8485   49.5149 C.ar    1  ZINC000550217006   -0.2100
      6 C6         -2.8176    4.6138   50.6500 C.ar    1  ZINC000550217006   -0.0800
      7 C7         -3.6100    4.4060   51.7636 C.ar    1  ZINC000550217006   -0.1600
      8 C8         -4.5919    3.4324   51.7446 C.ar    1  ZINC000550217006   -0.0700
      9 C9         -4.7873    2.6690   50.6102 C.ar    1  ZINC000550217006   -0.1200
     10 C10        -5.8578    1.6086   50.5899 C.3     1  ZINC000550217006   -0.0800
     11 C11        -7.0692    2.0915   51.3901 C.3     1  ZINC000550217006    0.1300
     12 N12        -6.9598    1.6215   52.7733 N.am    1  ZINC000550217006   -0.7200
     13 C13        -8.0706    1.4521   53.5174 C.2     1  ZINC000550217006    0.5600
     14 O14        -9.1630    1.6906   53.0414 O.2     1  ZINC000550217006   -0.5300
     15 C15        -7.9601    0.9754   54.9148 C.ar    1  ZINC000550217006   -0.0800
     16 C16        -7.2320    1.7136   55.8508 C.ar    1  ZINC000550217006   -0.1000
     17 C17        -7.1309    1.2673   57.1457 C.ar    1  ZINC000550217006   -0.0500
     18 C18        -7.7535    0.0728   57.5443 C.ar    1  ZINC000550217006   -0.1300
     19 C19        -8.4841   -0.6652   56.6136 C.ar    1  ZINC000550217006    0.1800
     20 C20        -8.5850   -0.2042   55.2997 C.ar    1  ZINC000550217006   -0.0900
     21 N21        -9.1386   -1.8457   56.9210 N.am    1  ZINC000550217006   -0.6600
     22 C22        -8.6644   -2.8153   57.6973 C.2     1  ZINC000550217006    0.5100
     23 O23        -9.3229   -3.8223   57.8495 O.2     1  ZINC000550217006   -0.5100
     24 C24        -7.3352   -2.7003   58.3919 C.3     1  ZINC000550217006    0.0900
     25 N25        -7.3954   -1.5936   59.3468 N.am    1  ZINC000550217006   -0.7100
     26 C26        -7.5938   -0.3389   58.9464 C.2     1  ZINC000550217006    0.5600
     27 O27        -7.6462    0.5255   59.7994 O.2     1  ZINC000550217006   -0.5200
     28 H28        -2.1510    0.4086   48.0970 H       1  ZINC000550217006    0.0700
     29 H29        -1.1281    1.4922   47.1233 H       1  ZINC000550217006    0.0800
     30 H30        -1.5507    1.9318   48.7955 H       1  ZINC000550217006    0.0700
     31 H31        -2.9112    3.2148   47.1671 H       1  ZINC000550217006    0.0600
     32 H32        -3.5114    1.6917   46.4685 H       1  ZINC000550217006    0.0600
     33 H33        -2.3852    4.0107   48.6454 H       1  ZINC000550217006    0.1300
     34 H34        -2.0512    5.3744   50.6674 H       1  ZINC000550217006    0.1300
     35 H35        -3.4618    5.0049   52.6501 H       1  ZINC000550217006    0.1300
     36 H36        -5.2095    3.2718   52.6160 H       1  ZINC000550217006    0.1300
     37 H37        -6.1568    1.4139   49.5600 H       1  ZINC000550217006    0.0800
     38 H38        -5.4701    0.6923   51.0351 H       1  ZINC000550217006    0.0800
     39 H39        -7.1018    3.1809   51.3780 H       1  ZINC000550217006    0.0700
     40 H40        -7.9812    1.6958   50.9430 H       1  ZINC000550217006    0.0700
     41 H41        -6.0877    1.4322   53.1537 H       1  ZINC000550217006    0.4000
     42 H42        -6.7490    2.6338   55.5567 H       1  ZINC000550217006    0.1400
     43 H43        -6.5661    1.8409   57.8656 H       1  ZINC000550217006    0.1500
     44 H44        -9.1471   -0.7737   54.5743 H       1  ZINC000550217006    0.1500
     45 H45       -10.0198   -1.9766   56.5371 H       1  ZINC000550217006    0.4200
     46 H46        -7.1184   -3.6281   58.9214 H       1  ZINC000550217006    0.1300
     47 H47        -6.5545   -2.5063   57.6566 H       1  ZINC000550217006    0.1000
     48 H48        -7.2887   -1.7778   60.2931 H       1  ZINC000550217006    0.4200
@<TRIPOS>BOND
     1     1     2    1
     2     1    28    1
     3     1    29    1
     4     1    30    1
     5     2     3    1
     6     2    31    1
     7     2    32    1
     8     3     4    1
     9     4     9   ar
    10     4     5   ar
    11     5     6   ar
    12     5    33    1
    13     6     7   ar
    14     6    34    1
    15     7     8   ar
    16     7    35    1
    17     8     9   ar
    18     8    36    1
    19     9    10    1
    20    10    11    1
    21    10    37    1
    22    10    38    1
    23    11    12    1
    24    11    39    1
    25    11    40    1
    26    12    13   am
    27    12    41    1
    28    13    14    2
    29    13    15    1
    30    15    20   ar
    31    15    16   ar
    32    16    17   ar
    33    16    42    1
    34    17    18   ar
    35    17    43    1
    36    18    26    1
    37    18    19   ar
    38    19    20   ar
    39    19    21    1
    40    20    44    1
    41    21    22   am
    42    21    45    1
    43    22    23    2
    44    22    24    1
    45    24    25    1
    46    24    46    1
    47    24    47    1
    48    25    26   am
    49    25    48    1
    50    26    27    2
@<TRIPOS>SUBSTRUCTURE
     1 ZINC000550217006        1 TEMP              0 ****  ****    0 ROOT


##########                                Name:    ZINC000486710336
##########                DOCK_Rotatable_Bonds:                   6
##########                         Heavy_Atoms:                  31
##########                    Molecular_Weight:             420.555
##########                DOCK_Rotatable_Bonds:                   6
##########                       Formal_Charge:         1.49012e-07
##########                     HBond_Acceptors:                   6
##########                        HBond_Donors:                   1
##########                         Heavy_Atoms:                  31
##########                          Grid_Score:          -31.252302
##########                     Grid_vdw_energy:          -30.059013
##########                      Grid_es_energy:           -1.193290
##########           Internal_energy_repulsive:           50.516209

@<TRIPOS>MOLECULE
ZINC000486710336
 63 67 1 0 0
SMALL
USER_CHARGES


@<TRIPOS>ATOM
      1 C1        -13.4860   -3.5070   58.7158 C.3     1  ZINC000486710336    0.1000
      2 N2        -14.5777   -2.6721   58.2087 N.pl3   1  ZINC000486710336   -0.3900
      3 N3        -15.8750   -3.1047   57.9052 N.2     1  ZINC000486710336   -0.2800
      4 C4        -16.5649   -2.0772   57.4807 C.2     1  ZINC000486710336    0.1000
      5 C5        -18.0082   -2.1032   57.0477 C.3     1  ZINC000486710336   -0.0100
      6 C6        -18.1358   -2.6947   55.6220 C.3     1  ZINC000486710336   -0.1200
      7 C7        -19.5990   -3.2020   55.5922 C.3     1  ZINC000486710336   -0.1200
      8 C8        -19.8315   -3.7698   57.0076 C.3     1  ZINC000486710336   -0.1200
      9 C9        -18.8200   -3.0711   57.9331 C.3     1  ZINC000486710336   -0.1100
     10 C10       -15.7373   -0.9518   57.4964 C.2     1  ZINC000486710336   -0.2600
     11 C11       -14.5143   -1.3391   57.9544 C.2     1  ZINC000486710336    0.3000
     12 N12       -13.4012   -0.5205   58.1234 N.am    1  ZINC000486710336   -0.6200
     13 C13       -13.0723   -0.0755   59.3523 C.2     1  ZINC000486710336    0.5100
     14 O14       -13.7477   -0.3873   60.3116 O.2     1  ZINC000486710336   -0.4800
     15 C15       -11.8774    0.8011   59.5338 C.2     1  ZINC000486710336    0.5300
     16 O16       -11.9904    1.8732   60.0912 O.2     1  ZINC000486710336   -0.5100
     17 N17       -10.6733    0.4019   59.0786 N.am    1  ZINC000486710336   -0.5800
     18 C18       -10.3865   -0.8651   58.3819 C.3     1  ZINC000486710336    0.1000
     19 C19        -8.8697   -0.8915   58.0902 C.3     1  ZINC000486710336   -0.0600
     20 H20        -8.6636   -0.5323   57.0819 H       1  ZINC000486710336    0.1000
     21 C21        -8.3118   -2.2777   58.2860 C.ar    1  ZINC000486710336   -0.0700
     22 C22        -9.1533   -3.3737   58.2443 C.ar    1  ZINC000486710336   -0.1100
     23 C23        -8.6415   -4.6452   58.4239 C.ar    1  ZINC000486710336   -0.1200
     24 C24        -7.2883   -4.8208   58.6447 C.ar    1  ZINC000486710336   -0.1200
     25 C25        -6.4467   -3.7249   58.6856 C.ar    1  ZINC000486710336   -0.1200
     26 C26        -6.9578   -2.4537   58.5016 C.ar    1  ZINC000486710336   -0.1100
     27 C27        -8.2995    0.0942   59.1558 C.3     1  ZINC000486710336   -0.0800
     28 H28        -7.3353    0.5140   58.8690 H       1  ZINC000486710336    0.1100
     29 C29        -8.2301   -0.6797   60.4739 C.3     1  ZINC000486710336   -0.1100
     30 C30        -8.0867    0.2778   61.6546 C.3     1  ZINC000486710336   -0.1200
     31 C31        -9.3253    1.1786   61.7089 C.3     1  ZINC000486710336   -0.1100
     32 C32        -9.3686    2.0181   60.4321 C.3     1  ZINC000486710336   -0.1400
     33 C33        -9.4199    1.1534   59.1836 C.3     1  ZINC000486710336    0.1400
     34 H34        -9.3384    1.8000   58.3097 H       1  ZINC000486710336    0.0800
     35 H35       -13.5115   -3.5160   59.8055 H       1  ZINC000486710336    0.0800
     36 H36       -13.6021   -4.5239   58.3412 H       1  ZINC000486710336    0.1000
     37 H37       -12.5320   -3.1021   58.3782 H       1  ZINC000486710336    0.0800
     38 H38       -18.4353   -1.1012   57.0870 H       1  ZINC000486710336    0.0900
     39 H39       -17.9791   -1.9231   54.8682 H       1  ZINC000486710336    0.0700
     40 H40       -17.4379   -3.5203   55.4823 H       1  ZINC000486710336    0.0800
     41 H41       -20.2846   -2.3779   55.3944 H       1  ZINC000486710336    0.0700
     42 H42       -19.7161   -3.9850   54.8430 H       1  ZINC000486710336    0.0700
     43 H43       -20.8485   -3.5529   57.3346 H       1  ZINC000486710336    0.0600
     44 H44       -19.6593   -4.8461   57.0111 H       1  ZINC000486710336    0.0600
     45 H45       -18.1569   -3.8085   58.3857 H       1  ZINC000486710336    0.0700
     46 H46       -19.3460   -2.5152   58.7092 H       1  ZINC000486710336    0.0700
     47 H47       -16.0185    0.0484   57.2017 H       1  ZINC000486710336    0.1700
     48 H48       -12.8622   -0.2704   57.3567 H       1  ZINC000486710336    0.4200
     49 H49       -10.6566   -1.7079   59.0182 H       1  ZINC000486710336    0.0900
     50 H50       -10.9450   -0.9090   57.4469 H       1  ZINC000486710336    0.0800
     51 H51       -10.2105   -3.2364   58.0718 H       1  ZINC000486710336    0.1200
     52 H52        -9.2991   -5.5013   58.3919 H       1  ZINC000486710336    0.1200
     53 H53        -6.8886   -5.8142   58.7857 H       1  ZINC000486710336    0.1200
     54 H54        -5.3895   -3.8621   58.8585 H       1  ZINC000486710336    0.1200
     55 H55        -6.3003   -1.5976   58.5336 H       1  ZINC000486710336    0.1200
     56 H56        -9.1417   -1.2650   60.5950 H       1  ZINC000486710336    0.0700
     57 H57        -7.3727   -1.3522   60.4508 H       1  ZINC000486710336    0.0700
     58 H58        -8.0083   -0.2923   62.5803 H       1  ZINC000486710336    0.0600
     59 H59        -7.1946    0.8901   61.5226 H       1  ZINC000486710336    0.0600
     60 H60       -10.2232    0.5643   61.7749 H       1  ZINC000486710336    0.0500
     61 H61        -9.2642    1.8345   62.5774 H       1  ZINC000486710336    0.0600
     62 H62       -10.2496    2.6593   60.4561 H       1  ZINC000486710336    0.1000
     63 H63        -8.4757    2.6415   60.3841 H       1  ZINC000486710336    0.0700
@<TRIPOS>BOND
     1     1     2    1
     2     1    35    1
     3     1    36    1
     4     1    37    1
     5     2    11    1
     6     2     3    1
     7     3     4    2
     8     4     5    1
     9     4    10    1
    10     5     9    1
    11     5     6    1
    12     5    38    1
    13     6     7    1
    14     6    39    1
    15     6    40    1
    16     7     8    1
    17     7    41    1
    18     7    42    1
    19     8     9    1
    20     8    43    1
    21     8    44    1
    22     9    45    1
    23     9    46    1
    24    10    11    2
    25    10    47    1
    26    11    12    1
    27    12    13   am
    28    12    48    1
    29    13    14    2
    30    13    15    1
    31    15    16    2
    32    15    17   am
    33    17    33    1
    34    17    18    1
    35    18    19    1
    36    18    49    1
    37    18    50    1
    38    19    20    1
    39    19    21    1
    40    19    27    1
    41    21    26   ar
    42    21    22   ar
    43    22    23   ar
    44    22    51    1
    45    23    24   ar
    46    23    52    1
    47    24    25   ar
    48    24    53    1
    49    25    26   ar
    50    25    54    1
    51    26    55    1
    52    27    28    1
    53    27    33    1
    54    27    29    1
    55    29    30    1
    56    29    56    1
    57    29    57    1
    58    30    31    1
    59    30    58    1
    60    30    59    1
    61    31    32    1
    62    31    60    1
    63    31    61    1
    64    32    33    1
    65    32    62    1
    66    32    63    1
    67    33    34    1
@<TRIPOS>SUBSTRUCTURE
     1 ZINC000486710336        1 TEMP              0 ****  ****    0 ROOT


##########                                Name:    ZINC001120957943
##########                DOCK_Rotatable_Bonds:                   4
##########                         Heavy_Atoms:                  27
##########                    Molecular_Weight:             396.802
##########                DOCK_Rotatable_Bonds:                   4
##########                       Formal_Charge:          -0.0199996
##########                     HBond_Acceptors:                  10
##########                        HBond_Donors:                   0
##########                         Heavy_Atoms:                  27
##########                          Grid_Score:          -31.238268
##########                     Grid_vdw_energy:          -30.615719
##########                      Grid_es_energy:           -0.622549
##########           Internal_energy_repulsive:            5.668266

@<TRIPOS>MOLECULE
ZINC001120957943
 43 46 1 0 0
SMALL
USER_CHARGES


@<TRIPOS>ATOM
      1 C1         -9.0156    2.8804   56.6446 C.3     1  ZINC001120957943    0.0900
      2 N2         -8.1669    1.8156   56.1040 N.pl3   1  ZINC001120957943   -0.6000
      3 C3         -7.0632    2.1467   55.1994 C.3     1  ZINC001120957943    0.2200
      4 C4         -7.4849    1.8867   53.7763 C.2     1  ZINC001120957943    0.1600
      5 N5         -8.6702    1.5060   53.3736 N.2     1  ZINC001120957943   -0.2500
      6 N6         -8.6744    1.3797   52.0908 N.2     1  ZINC001120957943   -0.2800
      7 C7         -7.4991    1.6720   51.6229 C.2     1  ZINC001120957943    0.1700
      8 C8         -7.0299    1.6638   50.1898 C.3     1  ZINC001120957943   -0.0300
      9 C9         -5.4954    1.6871   50.1896 C.3     1  ZINC001120957943   -0.1300
     10 C10        -5.0057    2.7910   51.1313 C.3     1  ZINC001120957943   -0.1500
     11 H11        -5.5158    3.7243   50.8927 H       1  ZINC001120957943    0.1300
     12 C12        -3.4969    2.9761   50.9582 C.3     1  ZINC001120957943    0.4600
     13 F13        -3.0262    3.8852   51.9117 F       1  ZINC001120957943   -0.1700
     14 F14        -2.8534    1.7456   51.1296 F       1  ZINC001120957943   -0.1800
     15 F15        -3.2314    3.4665   49.6752 F       1  ZINC001120957943   -0.1800
     16 C16        -5.3086    2.4001   52.5825 C.3     1  ZINC001120957943    0.1100
     17 N17        -6.7143    2.0078   52.6781 N.pl3   1  ZINC001120957943   -0.4700
     18 C18        -8.4086    0.4939   56.4487 C.ar    1  ZINC001120957943    0.3700
     19 C19        -9.5671   -0.1490   55.9786 C.ar    1  ZINC001120957943    0.0500
     20 N20        -9.8120   -1.3980   56.2936 N.ar    1  ZINC001120957943   -0.3900
     21 C21        -8.9529   -2.0704   57.0699 C.ar    1  ZINC001120957943    0.0400
     22 C22        -9.1920   -3.4096   57.4214 C.ar    1  ZINC001120957943   -0.0600
     23 C23        -8.3009   -4.0700   58.2123 C.ar    1  ZINC001120957943   -0.0400
     24 Cl24       -8.6013   -5.7245   58.6434 Cl      1  ZINC001120957943   -0.0600
     25 C25        -7.1505   -3.4356   58.6802 C.ar    1  ZINC001120957943   -0.0800
     26 C26        -6.8871   -2.1395   58.3596 C.ar    1  ZINC001120957943   -0.0800
     27 C27        -7.7840   -1.4262   57.5459 C.ar    1  ZINC001120957943    0.1400
     28 N28        -7.5465   -0.1521   57.2108 N.ar    1  ZINC001120957943   -0.4700
     29 H29        -9.8576    3.0500   55.9735 H       1  ZINC001120957943    0.0700
     30 H30        -9.3869    2.5860   57.6262 H       1  ZINC001120957943    0.0800
     31 H31        -8.4336    3.7975   56.7364 H       1  ZINC001120957943    0.0700
     32 H32        -6.8021    3.1987   55.3147 H       1  ZINC001120957943    0.1200
     33 H33        -6.1980    1.5291   55.4407 H       1  ZINC001120957943    0.1000
     34 H34        -7.3843    0.7613   49.6917 H       1  ZINC001120957943    0.1100
     35 H35        -7.4114    2.5441   49.6727 H       1  ZINC001120957943    0.1000
     36 H36        -5.1168    0.7235   50.5305 H       1  ZINC001120957943    0.0900
     37 H37        -5.1347    1.8837   49.1799 H       1  ZINC001120957943    0.1000
     38 H38        -4.6717    1.5661   52.8771 H       1  ZINC001120957943    0.1000
     39 H39        -5.1244    3.2524   53.2367 H       1  ZINC001120957943    0.1100
     40 H40       -10.2620    0.3910   55.3526 H       1  ZINC001120957943    0.1700
     41 H41       -10.0788   -3.9133   57.0661 H       1  ZINC001120957943    0.1500
     42 H42        -6.4590   -3.9804   59.3060 H       1  ZINC001120957943    0.1400
     43 H43        -5.9924   -1.6606   58.7293 H       1  ZINC001120957943    0.1500
@<TRIPOS>BOND
     1     1     2    1
     2     1    29    1
     3     1    30    1
     4     1    31    1
     5     2     3    1
     6     2    18    1
     7     3     4    1
     8     3    32    1
     9     3    33    1
    10     4    17    1
    11     4     5    2
    12     5     6    1
    13     6     7    2
    14     7    17    1
    15     7     8    1
    16     8     9    1
    17     8    34    1
    18     8    35    1
    19     9    10    1
    20     9    36    1
    21     9    37    1
    22    10    11    1
    23    10    12    1
    24    10    16    1
    25    12    13    1
    26    12    14    1
    27    12    15    1
    28    16    17    1
    29    16    38    1
    30    16    39    1
    31    18    28   ar
    32    18    19   ar
    33    19    20   ar
    34    19    40    1
    35    20    21   ar
    36    21    27   ar
    37    21    22   ar
    38    22    23   ar
    39    22    41    1
    40    23    24    1
    41    23    25   ar
    42    25    26   ar
    43    25    42    1
    44    26    27   ar
    45    26    43    1
    46    27    28   ar
@<TRIPOS>SUBSTRUCTURE
     1 ZINC001120957943        1 TEMP              0 ****  ****    0 ROOT


##########                                Name:    ZINC001312809190
##########                DOCK_Rotatable_Bonds:                   6
##########                         Heavy_Atoms:                  29
##########                    Molecular_Weight:             395.501
##########                DOCK_Rotatable_Bonds:                   6
##########                       Formal_Charge:           0.0199995
##########                     HBond_Acceptors:                   6
##########                        HBond_Donors:                   1
##########                         Heavy_Atoms:                  29
##########                          Grid_Score:          -31.224701
##########                     Grid_vdw_energy:          -30.571047
##########                      Grid_es_energy:           -0.653655
##########           Internal_energy_repulsive:           24.296970

@<TRIPOS>MOLECULE
ZINC001312809190
 58 61 1 0 0
SMALL
USER_CHARGES


@<TRIPOS>ATOM
      1 C1         -8.2771   -5.0390   58.2783 C.3     1  ZINC001312809190    0.0300
      2 O2         -7.4854   -3.8635   58.4617 O.3     1  ZINC001312809190   -0.3200
      3 C3         -8.1399   -2.6726   58.4604 C.ar    1  ZINC001312809190    0.1300
      4 C4         -9.5266   -2.6419   58.4551 C.ar    1  ZINC001312809190   -0.2100
      5 C5        -10.1897   -1.4298   58.4542 C.ar    1  ZINC001312809190   -0.0800
      6 C6         -9.4723   -0.2481   58.4581 C.ar    1  ZINC001312809190   -0.1300
      7 C7         -8.0896   -0.2760   58.4630 C.ar    1  ZINC001312809190   -0.0500
      8 C8         -7.3107    1.0141   58.4668 C.3     1  ZINC001312809190    0.1200
      9 H9         -6.2471    0.7966   58.3692 H       1  ZINC001312809190    0.0500
     10 C10        -7.5608    1.7571   59.7807 C.3     1  ZINC001312809190   -0.1400
     11 N11        -7.7445    1.8515   57.3404 N.3     1  ZINC001312809190   -0.5300
     12 C12        -7.7331    1.0907   56.0839 C.3     1  ZINC001312809190    0.0300
     13 C13        -8.3601    1.9382   54.9717 C.3     1  ZINC001312809190    0.1400
     14 N14        -7.6635    3.2326   54.9215 N.am    1  ZINC001312809190   -0.6300
     15 C15        -7.1750    3.7107   53.7599 C.2     1  ZINC001312809190    0.7100
     16 O16        -6.6017    4.7827   53.7369 O.2     1  ZINC001312809190   -0.5800
     17 N17        -7.3221    3.0005   52.6239 N.am    1  ZINC001312809190   -0.7300
     18 C18        -6.7911    3.5202   51.3614 C.3     1  ZINC001312809190    0.1800
     19 H19        -6.7865    4.6102   51.3622 H       1  ZINC001312809190    0.1200
     20 C20        -5.4032    2.9725   51.0906 C.ar    1  ZINC001312809190   -0.1900
     21 C21        -4.2871    2.8473   51.8873 C.ar    1  ZINC001312809190   -0.0500
     22 C22        -3.1289    2.2917   51.3724 C.ar    1  ZINC001312809190   -0.1500
     23 C23        -3.0980    1.8642   50.0581 C.ar    1  ZINC001312809190   -0.0800
     24 C24        -4.2141    1.9921   49.2570 C.ar    1  ZINC001312809190   -0.1400
     25 C25        -5.3823    2.5531   49.7664 C.ar    1  ZINC001312809190    0.1100
     26 O26        -6.5764    2.7880   49.1561 O.3     1  ZINC001312809190   -0.2900
     27 C27        -7.5928    2.9718   50.1571 C.3     1  ZINC001312809190    0.0800
     28 H28        -8.0641    2.0215   50.4079 H       1  ZINC001312809190    0.0900
     29 C29        -8.6381    3.9858   49.6883 C.3     1  ZINC001312809190   -0.1500
     30 C30        -7.5144    3.9916   56.1726 C.3     1  ZINC001312809190    0.1200
     31 C31        -6.9207    3.0633   57.2373 C.3     1  ZINC001312809190    0.0400
     32 C32        -7.4221   -1.4852   58.4701 C.ar    1  ZINC001312809190   -0.1500
     33 H33        -7.6328   -5.9179   58.3000 H       1  ZINC001312809190    0.1000
     34 H34        -9.0143   -5.1090   59.0782 H       1  ZINC001312809190    0.0600
     35 H35        -8.7879   -4.9867   57.3169 H       1  ZINC001312809190    0.0600
     36 H36       -10.0876   -3.5648   58.4512 H       1  ZINC001312809190    0.1300
     37 H37       -11.2694   -1.4054   58.4501 H       1  ZINC001312809190    0.1300
     38 H38        -9.9924    0.6984   58.4571 H       1  ZINC001312809190    0.1300
     39 H39        -8.6245    1.9746   59.8782 H       1  ZINC001312809190    0.0700
     40 H40        -7.2390    1.1358   60.6164 H       1  ZINC001312809190    0.0600
     41 H41        -6.9974    2.6902   59.7834 H       1  ZINC001312809190    0.0600
     42 H42        -6.7052    0.8440   55.8174 H       1  ZINC001312809190    0.0400
     43 H43        -8.3071    0.1727   56.2092 H       1  ZINC001312809190    0.1000
     44 H44        -8.2511    1.4263   54.0156 H       1  ZINC001312809190    0.1000
     45 H45        -9.4168    2.0991   55.1856 H       1  ZINC001312809190    0.0700
     46 H46        -7.7793    2.1452   52.6423 H       1  ZINC001312809190    0.4000
     47 H47        -4.3155    3.1829   52.9134 H       1  ZINC001312809190    0.1200
     48 H48        -2.2521    2.1926   51.9951 H       1  ZINC001312809190    0.1300
     49 H49        -2.1955    1.4283   49.6560 H       1  ZINC001312809190    0.1300
     50 H50        -4.1815    1.6561   48.2312 H       1  ZINC001312809190    0.1300
     51 H51        -9.1254    3.6149   48.7866 H       1  ZINC001312809190    0.0800
     52 H52        -9.3827    4.1285   50.4714 H       1  ZINC001312809190    0.0800
     53 H53        -8.1508    4.9368   49.4727 H       1  ZINC001312809190    0.0700
     54 H54        -6.8462    4.8373   56.0102 H       1  ZINC001312809190    0.0800
     55 H55        -8.4897    4.3498   56.5018 H       1  ZINC001312809190    0.0800
     56 H56        -6.9056    3.5758   58.1992 H       1  ZINC001312809190    0.0900
     57 H57        -5.9042    2.7890   56.9549 H       1  ZINC001312809190    0.0400
     58 H58        -6.3423   -1.5064   58.4742 H       1  ZINC001312809190    0.1300
@<TRIPOS>BOND
     1     1     2    1
     2     1    33    1
     3     1    34    1
     4     1    35    1
     5     2     3    1
     6     3    32   ar
     7     3     4   ar
     8     4     5   ar
     9     4    36    1
    10     5     6   ar
    11     5    37    1
    12     6     7   ar
    13     6    38    1
    14     7     8    1
    15     7    32   ar
    16     8     9    1
    17     8    10    1
    18     8    11    1
    19    10    39    1
    20    10    40    1
    21    10    41    1
    22    11    31    1
    23    11    12    1
    24    12    13    1
    25    12    42    1
    26    12    43    1
    27    13    14    1
    28    13    44    1
    29    13    45    1
    30    14    15   am
    31    14    30    1
    32    15    16    2
    33    15    17   am
    34    17    18    1
    35    17    46    1
    36    18    19    1
    37    18    27    1
    38    18    20    1
    39    20    25   ar
    40    20    21   ar
    41    21    22   ar
    42    21    47    1
    43    22    23   ar
    44    22    48    1
    45    23    24   ar
    46    23    49    1
    47    24    25   ar
    48    24    50    1
    49    25    26    1
    50    26    27    1
    51    27    28    1
    52    27    29    1
    53    29    51    1
    54    29    52    1
    55    29    53    1
    56    30    31    1
    57    30    54    1
    58    30    55    1
    59    31    56    1
    60    31    57    1
    61    32    58    1
@<TRIPOS>SUBSTRUCTURE
     1 ZINC001312809190        1 TEMP              0 ****  ****    0 ROOT


##########                                Name:    ZINC000175255939
##########                DOCK_Rotatable_Bonds:                   8
##########                         Heavy_Atoms:                  28
##########                    Molecular_Weight:             394.375
##########                DOCK_Rotatable_Bonds:                   8
##########                       Formal_Charge:          -0.0399999
##########                     HBond_Acceptors:                   9
##########                        HBond_Donors:                   1
##########                         Heavy_Atoms:                  28
##########                          Grid_Score:          -31.209675
##########                     Grid_vdw_energy:          -27.548727
##########                      Grid_es_energy:           -3.660947
##########           Internal_energy_repulsive:           17.366808

@<TRIPOS>MOLECULE
ZINC000175255939
 48 50 1 0 0
SMALL
USER_CHARGES


@<TRIPOS>ATOM
      1 C1         -0.5249   -0.7968   48.0853 C.3     1  ZINC000175255939    0.0300
      2 O2         -1.2887   -0.3476   46.9349 O.3     1  ZINC000175255939   -0.3600
      3 C3         -1.8219    0.8825   47.0000 C.2     1  ZINC000175255939    0.4600
      4 O4         -2.4240    1.3309   46.0533 O.2     1  ZINC000175255939   -0.5000
      5 C5         -1.6697    1.7042   48.2540 C.3     1  ZINC000175255939   -0.0800
      6 H6         -0.7931    1.3655   48.8062 H       1  ZINC000175255939    0.1100
      7 C7         -1.4991    3.1781   47.8805 C.3     1  ZINC000175255939   -0.1200
      8 C8         -1.3446    4.0123   49.1537 C.3     1  ZINC000175255939   -0.1100
      9 C9         -2.5911    3.8481   50.0254 C.3     1  ZINC000175255939   -0.1200
     10 C10        -2.7617    2.3743   50.3990 C.3     1  ZINC000175255939   -0.1000
     11 H11        -1.8852    2.0356   50.9512 H       1  ZINC000175255939    0.1100
     12 C12        -3.9897    2.2126   51.2576 C.2     1  ZINC000175255939    0.5100
     13 O13        -5.0139    1.7779   50.7753 O.2     1  ZINC000175255939   -0.4800
     14 N14        -3.9494    2.5511   52.5615 N.am    1  ZINC000175255939   -0.6300
     15 C15        -5.0807    2.4038   53.3518 C.2     1  ZINC000175255939    0.2100
     16 C16        -5.1180    2.2905   54.7095 C.2     1  ZINC000175255939   -0.2600
     17 C17        -6.5008    2.1652   55.0025 C.2     1  ZINC000175255939    0.0900
     18 C18        -7.1165    2.0108   56.3438 C.ar    1  ZINC000175255939   -0.0500
     19 C19        -8.4469    1.6118   56.4595 C.ar    1  ZINC000175255939   -0.0600
     20 C20        -9.0165    1.4691   57.7071 C.ar    1  ZINC000175255939   -0.1300
     21 C21        -8.2660    1.7229   58.8475 C.ar    1  ZINC000175255939    0.1200
     22 O22        -8.8297    1.5815   60.0753 O.3     1  ZINC000175255939   -0.3200
     23 C23        -8.3387    0.5199   60.8963 C.3     1  ZINC000175255939    0.4100
     24 F24        -9.1916    0.3447   61.9914 F       1  ZINC000175255939   -0.2000
     25 F25        -8.2893   -0.6622   60.1498 F       1  ZINC000175255939   -0.2000
     26 C26        -6.9404    2.1204   58.7351 C.ar    1  ZINC000175255939   -0.1900
     27 C27        -6.3638    2.2587   57.4903 C.ar    1  ZINC000175255939   -0.0500
     28 N28        -7.1259    2.2131   53.8503 N.2     1  ZINC000175255939   -0.3600
     29 O29        -6.3542    2.3506   52.9300 O.3     1  ZINC000175255939    0.1200
     30 C30        -2.9163    1.5401   49.1258 C.3     1  ZINC000175255939   -0.0900
     31 H31        -0.1511   -1.8042   47.9024 H       1  ZINC000175255939    0.1000
     32 H32         0.3150   -0.1218   48.2498 H       1  ZINC000175255939    0.0600
     33 H33        -1.1654   -0.8015   48.9672 H       1  ZINC000175255939    0.0600
     34 H34        -0.6110    3.2949   47.2595 H       1  ZINC000175255939    0.0800
     35 H35        -2.3757    3.5168   47.3284 H       1  ZINC000175255939    0.0700
     36 H36        -0.4679    3.6736   49.7058 H       1  ZINC000175255939    0.0700
     37 H37        -1.2229    5.0623   48.8875 H       1  ZINC000175255939    0.0800
     38 H38        -2.4811    4.4425   50.9325 H       1  ZINC000175255939    0.0700
     39 H39        -3.4678    4.1869   49.4733 H       1  ZINC000175255939    0.0800
     40 H40        -3.1299    2.8976   52.9476 H       1  ZINC000175255939    0.4300
     41 H41        -4.2885    2.2948   55.4011 H       1  ZINC000175255939    0.1800
     42 H42        -9.0314    1.4151   55.5728 H       1  ZINC000175255939    0.1400
     43 H43       -10.0474    1.1602   57.7973 H       1  ZINC000175255939    0.1400
     44 H44        -7.3383    0.7678   61.2510 H       1  ZINC000175255939    0.1900
     45 H45        -6.3591    2.3171   59.6238 H       1  ZINC000175255939    0.1400
     46 H46        -5.3326    2.5675   57.4036 H       1  ZINC000175255939    0.1400
     47 H47        -3.7929    1.8788   48.5737 H       1  ZINC000175255939    0.0900
     48 H48        -3.0379    0.4901   49.3919 H       1  ZINC000175255939    0.0800
@<TRIPOS>BOND
     1     1     2    1
     2     1    31    1
     3     1    32    1
     4     1    33    1
     5     2     3    1
     6     3     4    2
     7     3     5    1
     8     5     6    1
     9     5    30    1
    10     5     7    1
    11     7     8    1
    12     7    34    1
    13     7    35    1
    14     8     9    1
    15     8    36    1
    16     8    37    1
    17     9    10    1
    18     9    38    1
    19     9    39    1
    20    10    11    1
    21    10    12    1
    22    10    30    1
    23    12    13    2
    24    12    14   am
    25    14    15    1
    26    14    40    1
    27    15    29    1
    28    15    16    2
    29    16    17    1
    30    16    41    1
    31    17    18    1
    32    17    28    2
    33    18    27   ar
    34    18    19   ar
    35    19    20   ar
    36    19    42    1
    37    20    21   ar
    38    20    43    1
    39    21    22    1
    40    21    26   ar
    41    22    23    1
    42    23    24    1
    43    23    25    1
    44    23    44    1
    45    26    27   ar
    46    26    45    1
    47    27    46    1
    48    28    29    1
    49    30    47    1
    50    30    48    1
@<TRIPOS>SUBSTRUCTURE
     1 ZINC000175255939        1 TEMP              0 ****  ****    0 ROOT


##########                                Name:    ZINC000461678839
##########                DOCK_Rotatable_Bonds:                   6
##########                         Heavy_Atoms:                  28
##########                    Molecular_Weight:             404.939
##########                DOCK_Rotatable_Bonds:                   6
##########                       Formal_Charge:          -0.0200003
##########                     HBond_Acceptors:                   7
##########                        HBond_Donors:                   0
##########                         Heavy_Atoms:                  28
##########                          Grid_Score:          -31.193512
##########                     Grid_vdw_energy:          -31.057421
##########                      Grid_es_energy:           -0.136090
##########           Internal_energy_repulsive:           12.354688

@<TRIPOS>MOLECULE
ZINC000461678839
 57 60 1 0 0
SMALL
USER_CHARGES


@<TRIPOS>ATOM
      1 C1         -2.8509    3.2231   50.3833 C.3     1  ZINC000461678839   -0.1500
      2 C2         -4.3030    2.8355   50.0970 C.3     1  ZINC000461678839   -0.0900
      3 H3         -4.4033    2.5895   49.0398 H       1  ZINC000461678839    0.0700
      4 C4         -5.2191    4.0361   50.4242 C.3     1  ZINC000461678839   -0.1100
      5 C5         -6.5496    3.8309   49.7505 C.3     1  ZINC000461678839   -0.1200
      6 C6         -7.5712    3.1092   50.6476 C.3     1  ZINC000461678839    0.0600
      7 N7         -6.9905    1.9784   51.4045 N.3     1  ZINC000461678839   -0.4600
      8 C8         -7.9850    1.2009   51.9766 C.2     1  ZINC000461678839    0.3700
      9 N9         -8.5180    0.1162   51.4655 N.2     1  ZINC000461678839   -0.3100
     10 N10        -9.4104   -0.3498   52.2645 N.2     1  ZINC000461678839   -0.2500
     11 C11        -9.4991    0.4037   53.3237 C.2     1  ZINC000461678839    0.1700
     12 C12       -10.4265    0.1951   54.4932 C.3     1  ZINC000461678839    0.1500
     13 O13       -10.4343   -1.1875   54.8541 O.3     1  ZINC000461678839   -0.3100
     14 C14       -11.2249   -1.5479   55.8994 C.ar    1  ZINC000461678839    0.1400
     15 C15       -12.0701   -0.6163   56.4844 C.ar    1  ZINC000461678839   -0.2000
     16 C16       -12.8728   -0.9845   57.5468 C.ar    1  ZINC000461678839   -0.0700
     17 C17       -12.8339   -2.2813   58.0276 C.ar    1  ZINC000461678839   -0.0700
     18 Cl18      -13.8431   -2.7414   59.3630 Cl      1  ZINC000461678839   -0.0700
     19 C19       -11.9919   -3.2120   57.4451 C.ar    1  ZINC000461678839   -0.0700
     20 C20       -11.1919   -2.8492   56.3790 C.ar    1  ZINC000461678839   -0.1400
     21 N21        -8.5905    1.4155   53.1804 N.pl3   1  ZINC000461678839   -0.4600
     22 C22        -8.3279    2.5081   54.1203 C.3     1  ZINC000461678839    0.1200
     23 C23        -7.4067    2.0107   55.2360 C.3     1  ZINC000461678839   -0.1400
     24 H24        -7.6421    0.9776   55.4916 H       1  ZINC000461678839    0.0900
     25 C25        -7.5280    2.9187   56.4840 C.3     1  ZINC000461678839   -0.1500
     26 C26        -6.0543    3.0254   56.9523 C.3     1  ZINC000461678839    0.0500
     27 O27        -5.3107    3.0758   55.7158 O.3     1  ZINC000461678839   -0.3700
     28 C28        -5.9302    2.1390   54.8138 C.3     1  ZINC000461678839    0.0400
     29 C29        -6.0825    1.1681   50.6290 C.3     1  ZINC000461678839    0.0700
     30 C30        -4.6486    1.6632   50.8933 C.3     1  ZINC000461678839   -0.1100
     31 H31        -2.1963    2.3870   50.1371 H       1  ZINC000461678839    0.0500
     32 H32        -2.5793    4.0877   49.7776 H       1  ZINC000461678839    0.0500
     33 H33        -2.7425    3.4708   51.4393 H       1  ZINC000461678839    0.0600
     34 H34        -5.3623    4.1028   51.5027 H       1  ZINC000461678839    0.0700
     35 H35        -4.7619    4.9550   50.0572 H       1  ZINC000461678839    0.0700
     36 H36        -6.9544    4.8031   49.4693 H       1  ZINC000461678839    0.0800
     37 H37        -6.3981    3.2413   48.8464 H       1  ZINC000461678839    0.0700
     38 H38        -7.9845    3.8280   51.3551 H       1  ZINC000461678839    0.0700
     39 H39        -8.3808    2.7325   50.0225 H       1  ZINC000461678839    0.0500
     40 H40       -10.0832    0.7897   55.3397 H       1  ZINC000461678839    0.0800
     41 H41       -11.4346    0.5043   54.2170 H       1  ZINC000461678839    0.1000
     42 H42       -12.1002    0.3962   56.1099 H       1  ZINC000461678839    0.1400
     43 H43       -13.5309   -0.2594   58.0025 H       1  ZINC000461678839    0.1400
     44 H44       -11.9631   -4.2239   57.8215 H       1  ZINC000461678839    0.1400
     45 H45       -10.5348   -3.5759   55.9245 H       1  ZINC000461678839    0.1400
     46 H46        -7.8480    3.3331   53.5936 H       1  ZINC000461678839    0.1100
     47 H47        -9.2686    2.8505   54.5514 H       1  ZINC000461678839    0.1000
     48 H48        -7.9226    3.8986   56.2152 H       1  ZINC000461678839    0.0800
     49 H49        -8.1460    2.4484   57.2487 H       1  ZINC000461678839    0.0900
     50 H50        -5.9003    3.9366   57.5303 H       1  ZINC000461678839    0.1000
     51 H51        -5.7721    2.1481   57.5344 H       1  ZINC000461678839    0.0600
     52 H52        -5.4352    1.1707   54.8876 H       1  ZINC000461678839    0.0500
     53 H53        -5.8684    2.5123   53.7916 H       1  ZINC000461678839    0.1100
     54 H54        -6.1727    0.1245   50.9303 H       1  ZINC000461678839    0.0900
     55 H55        -6.3164    1.2665   49.5689 H       1  ZINC000461678839    0.0600
     56 H56        -3.9499    0.8605   50.6571 H       1  ZINC000461678839    0.0700
     57 H57        -4.5512    1.9123   51.9499 H       1  ZINC000461678839    0.0700
@<TRIPOS>BOND
     1     1     2    1
     2     1    31    1
     3     1    32    1
     4     1    33    1
     5     2     3    1
     6     2    30    1
     7     2     4    1
     8     4     5    1
     9     4    34    1
    10     4    35    1
    11     5     6    1
    12     5    36    1
    13     5    37    1
    14     6     7    1
    15     6    38    1
    16     6    39    1
    17     7     8    1
    18     7    29    1
    19     8    21    1
    20     8     9    2
    21     9    10    1
    22    10    11    2
    23    11    12    1
    24    11    21    1
    25    12    13    1
    26    12    40    1
    27    12    41    1
    28    13    14    1
    29    14    20   ar
    30    14    15   ar
    31    15    16   ar
    32    15    42    1
    33    16    17   ar
    34    16    43    1
    35    17    18    1
    36    17    19   ar
    37    19    20   ar
    38    19    44    1
    39    20    45    1
    40    21    22    1
    41    22    23    1
    42    22    46    1
    43    22    47    1
    44    23    24    1
    45    23    28    1
    46    23    25    1
    47    25    26    1
    48    25    48    1
    49    25    49    1
    50    26    27    1
    51    26    50    1
    52    26    51    1
    53    27    28    1
    54    28    52    1
    55    28    53    1
    56    29    30    1
    57    29    54    1
    58    29    55    1
    59    30    56    1
    60    30    57    1
@<TRIPOS>SUBSTRUCTURE
     1 ZINC000461678839        1 TEMP              0 ****  ****    0 ROOT


##########                                Name:    ZINC000766421809
##########                DOCK_Rotatable_Bonds:                   7
##########                         Heavy_Atoms:                  26
##########                    Molecular_Weight:             358.372
##########                DOCK_Rotatable_Bonds:                   7
##########                       Formal_Charge:         4.61936e-07
##########                     HBond_Acceptors:                   8
##########                        HBond_Donors:                   0
##########                         Heavy_Atoms:                  26
##########                          Grid_Score:          -31.180607
##########                     Grid_vdw_energy:          -30.456421
##########                      Grid_es_energy:           -0.724185
##########           Internal_energy_repulsive:            4.476599

@<TRIPOS>MOLECULE
ZINC000766421809
 45 47 1 0 0
SMALL
USER_CHARGES


@<TRIPOS>ATOM
      1 C1         -9.2116   -3.8257   57.5448 C.3     1  ZINC000766421809   -0.0700
      2 C2         -8.8029   -2.3769   57.4728 C.2     1  ZINC000766421809    0.0700
      3 N3         -8.0302   -1.7545   58.3256 N.2     1  ZINC000766421809   -0.2900
      4 N4         -7.8948   -0.4254   57.9043 N.pl3   1  ZINC000766421809   -0.3700
      5 C5         -7.1125    0.6159   58.5752 C.3     1  ZINC000766421809    0.1000
      6 C6         -8.6121   -0.2736   56.7714 C.2     1  ZINC000766421809    0.0700
      7 C7         -8.7514    0.9958   55.9713 C.3     1  ZINC000766421809    0.1400
      8 O8         -7.7996    0.9838   54.8750 O.3     1  ZINC000766421809   -0.3400
      9 C9         -7.9284    1.9438   53.9456 C.2     1  ZINC000766421809    0.4700
     10 O10        -8.8815    2.6860   53.9718 O.2     1  ZINC000766421809   -0.5000
     11 C11        -6.8842    2.0959   52.8697 C.3     1  ZINC000766421809   -0.1100
     12 C12        -5.5939    2.6415   53.4849 C.3     1  ZINC000766421809   -0.0200
     13 C13        -4.4658    2.4973   52.4962 C.2     1  ZINC000766421809    0.1900
     14 N14        -4.5790    2.2096   51.2235 N.2     1  ZINC000766421809   -0.4700
     15 C15        -3.3153    2.1859   50.7426 C.2     1  ZINC000766421809    0.2200
     16 C16        -2.9103    1.9045   49.3431 C.ar    1  ZINC000766421809   -0.0300
     17 C17        -3.5448    2.5565   48.2877 C.ar    1  ZINC000766421809   -0.0500
     18 C18        -3.1648    2.2923   46.9878 C.ar    1  ZINC000766421809   -0.1500
     19 C19        -2.1544    1.3797   46.7314 C.ar    1  ZINC000766421809    0.1200
     20 F20        -1.7856    1.1236   45.4571 F       1  ZINC000766421809   -0.1300
     21 C21        -1.5204    0.7294   47.7781 C.ar    1  ZINC000766421809   -0.1200
     22 C22        -0.4213   -0.2615   47.4930 C.3     1  ZINC000766421809   -0.1200
     23 C23        -1.8904    0.9916   49.0809 C.ar    1  ZINC000766421809   -0.0600
     24 N24        -2.5169    2.4581   51.7421 N.2     1  ZINC000766421809   -0.3700
     25 O25        -3.1621    2.6446   52.7520 O.3     1  ZINC000766421809    0.0900
     26 C26        -9.1794   -1.4670   56.4795 C.2     1  ZINC000766421809   -0.2400
     27 H27        -8.4834   -4.4356   57.0101 H       1  ZINC000766421809    0.0800
     28 H28        -9.2530   -4.1402   58.5876 H       1  ZINC000766421809    0.0700
     29 H29       -10.1938   -3.9492   57.0886 H       1  ZINC000766421809    0.0800
     30 H30        -6.0947    0.6136   58.1854 H       1  ZINC000766421809    0.0800
     31 H31        -7.5696    1.5884   58.3919 H       1  ZINC000766421809    0.0900
     32 H32        -7.0915    0.4206   59.6474 H       1  ZINC000766421809    0.0900
     33 H33        -9.7637    1.0649   55.5730 H       1  ZINC000766421809    0.0900
     34 H34        -8.5546    1.8538   56.6141 H       1  ZINC000766421809    0.0900
     35 H35        -6.6874    1.1253   52.4144 H       1  ZINC000766421809    0.1200
     36 H36        -7.2447    2.7879   52.1087 H       1  ZINC000766421809    0.1200
     37 H37        -5.7268    3.6944   53.7334 H       1  ZINC000766421809    0.1200
     38 H38        -5.3577    2.0817   54.3898 H       1  ZINC000766421809    0.1200
     39 H39        -4.3330    3.2676   48.4868 H       1  ZINC000766421809    0.1500
     40 H40        -3.6560    2.7972   46.1692 H       1  ZINC000766421809    0.1500
     41 H41         0.5379    0.2556   47.4736 H       1  ZINC000766421809    0.0800
     42 H42        -0.4077   -1.0233   48.2725 H       1  ZINC000766421809    0.0800
     43 H43        -0.5994   -0.7335   46.5268 H       1  ZINC000766421809    0.0700
     44 H44        -1.3959    0.4842   49.8960 H       1  ZINC000766421809    0.1400
     45 H45        -9.8155   -1.6779   55.6326 H       1  ZINC000766421809    0.1500
@<TRIPOS>BOND
     1     1     2    1
     2     1    27    1
     3     1    28    1
     4     1    29    1
     5     2    26    1
     6     2     3    2
     7     3     4    1
     8     4     5    1
     9     4     6    1
    10     5    30    1
    11     5    31    1
    12     5    32    1
    13     6     7    1
    14     6    26    2
    15     7     8    1
    16     7    33    1
    17     7    34    1
    18     8     9    1
    19     9    10    2
    20     9    11    1
    21    11    12    1
    22    11    35    1
    23    11    36    1
    24    12    13    1
    25    12    37    1
    26    12    38    1
    27    13    25    1
    28    13    14    2
    29    14    15    1
    30    15    16    1
    31    15    24    2
    32    16    23   ar
    33    16    17   ar
    34    17    18   ar
    35    17    39    1
    36    18    19   ar
    37    18    40    1
    38    19    20    1
    39    19    21   ar
    40    21    22    1
    41    21    23   ar
    42    22    41    1
    43    22    42    1
    44    22    43    1
    45    23    44    1
    46    24    25    1
    47    26    45    1
@<TRIPOS>SUBSTRUCTURE
     1 ZINC000766421809        1 TEMP              0 ****  ****    0 ROOT


##########                                Name:    ZINC000548281822
##########                DOCK_Rotatable_Bonds:                   6
##########                         Heavy_Atoms:                  24
##########                    Molecular_Weight:             332.406
##########                DOCK_Rotatable_Bonds:                   6
##########                       Formal_Charge:        -5.58794e-08
##########                     HBond_Acceptors:                   8
##########                        HBond_Donors:                   2
##########                         Heavy_Atoms:                  24
##########                          Grid_Score:          -31.143423
##########                     Grid_vdw_energy:          -29.909075
##########                      Grid_es_energy:           -1.234348
##########           Internal_energy_repulsive:            7.035027

@<TRIPOS>MOLECULE
ZINC000548281822
 48 50 1 0 0
SMALL
USER_CHARGES


@<TRIPOS>ATOM
      1 C1         -6.2316    3.7840   51.0868 C.3     1  ZINC000548281822   -0.1700
      2 C2         -6.3399    2.4228   50.3966 C.3     1  ZINC000548281822    0.2600
      3 H3         -6.6431    2.5646   49.3592 H       1  ZINC000548281822    0.1400
      4 N4         -5.0395    1.7496   50.4378 N.am    1  ZINC000548281822   -0.7400
      5 C5         -4.1237    1.9937   49.4796 C.2     1  ZINC000548281822    0.7100
      6 O6         -4.3772    2.7716   48.5802 O.2     1  ZINC000548281822   -0.5700
      7 N7         -2.9266    1.3756   49.5183 N.am    1  ZINC000548281822   -0.7400
      8 C8         -1.9304    1.6423   48.4778 C.3     1  ZINC000548281822    0.1600
      9 H9         -1.8956    2.7123   48.2730 H       1  ZINC000548281822    0.1000
     10 C10        -0.5543    1.1677   48.9537 C.3     1  ZINC000548281822   -0.1400
     11 C11         0.5209    1.6537   47.9756 C.3     1  ZINC000548281822    0.1100
     12 N12         0.1162    1.2968   46.6138 N.pl3   1  ZINC000548281822   -0.4600
     13 C13         0.8963    1.2456   45.4972 C.2     1  ZINC000548281822   -0.0500
     14 C14         0.0936    0.8695   44.4809 C.2     1  ZINC000548281822   -0.0300
     15 N15        -1.1450    0.6969   44.9703 N.2     1  ZINC000548281822   -0.4900
     16 C16        -1.1404    0.9510   46.2461 C.2     1  ZINC000548281822    0.2100
     17 C17        -2.3118    0.8878   47.1979 C.3     1  ZINC000548281822   -0.0500
     18 C18        -7.3654    1.5787   51.1086 C.2     1  ZINC000548281822    0.1700
     19 N19        -8.4262    2.0113   51.7466 N.2     1  ZINC000548281822   -0.4600
     20 C20        -9.0394    0.9108   52.2173 C.2     1  ZINC000548281822    0.1900
     21 C21       -10.3118    0.8748   53.0240 C.3     1  ZINC000548281822    0.0200
     22 C22       -11.4601    0.3780   52.1433 C.3     1  ZINC000548281822   -0.1400
     23 C23       -10.1351   -0.0714   54.2133 C.3     1  ZINC000548281822   -0.1400
     24 C24       -10.6321    2.2812   53.5343 C.3     1  ZINC000548281822   -0.1400
     25 N25        -8.3335   -0.1160   51.8484 N.2     1  ZINC000548281822   -0.3700
     26 O26        -7.3705    0.2458   51.2054 O.3     1  ZINC000548281822    0.0800
     27 H27        -5.9286    3.6423   52.1242 H       1  ZINC000548281822    0.0700
     28 H28        -5.4900    4.3945   50.5718 H       1  ZINC000548281822    0.0900
     29 H29        -7.1992    4.2850   51.0562 H       1  ZINC000548281822    0.0800
     30 H30        -4.8376    1.1280   51.1546 H       1  ZINC000548281822    0.4000
     31 H31        -2.7247    0.7540   50.2352 H       1  ZINC000548281822    0.4000
     32 H32        -0.3530    1.5729   49.9453 H       1  ZINC000548281822    0.1000
     33 H33        -0.5405    0.0786   48.9968 H       1  ZINC000548281822    0.0800
     34 H34         0.6241    2.7358   48.0543 H       1  ZINC000548281822    0.0900
     35 H35         1.4720    1.1758   48.2111 H       1  ZINC000548281822    0.1000
     36 H36         1.9522    1.4645   45.4378 H       1  ZINC000548281822    0.1800
     37 H37         0.3943    0.7320   43.4528 H       1  ZINC000548281822    0.1700
     38 H38        -2.5354   -0.1519   47.4372 H       1  ZINC000548281822    0.0900
     39 H39        -3.1832    1.3560   46.7402 H       1  ZINC000548281822    0.1000
     40 H40       -11.2320   -0.6239   51.7797 H       1  ZINC000548281822    0.0600
     41 H41       -12.3805    0.3520   52.7267 H       1  ZINC000548281822    0.0700
     42 H42       -11.5860    1.0521   51.2960 H       1  ZINC000548281822    0.0700
     43 H43        -9.3171    0.2826   54.8407 H       1  ZINC000548281822    0.0600
     44 H44       -11.0554   -0.0974   54.7967 H       1  ZINC000548281822    0.0700
     45 H45        -9.9070   -1.0733   53.8498 H       1  ZINC000548281822    0.0600
     46 H46       -10.7580    2.9553   52.6870 H       1  ZINC000548281822    0.0700
     47 H47       -11.5524    2.2552   54.1177 H       1  ZINC000548281822    0.0700
     48 H48        -9.8141    2.6351   54.1617 H       1  ZINC000548281822    0.0600
@<TRIPOS>BOND
     1     1     2    1
     2     1    27    1
     3     1    28    1
     4     1    29    1
     5     2     3    1
     6     2     4    1
     7     2    18    1
     8     4     5   am
     9     4    30    1
    10     5     6    2
    11     5     7   am
    12     7     8    1
    13     7    31    1
    14     8     9    1
    15     8    17    1
    16     8    10    1
    17    10    11    1
    18    10    32    1
    19    10    33    1
    20    11    12    1
    21    11    34    1
    22    11    35    1
    23    12    16    1
    24    12    13    1
    25    13    14    2
    26    13    36    1
    27    14    15    1
    28    14    37    1
    29    15    16    2
    30    16    17    1
    31    17    38    1
    32    17    39    1
    33    18    26    1
    34    18    19    2
    35    19    20    1
    36    20    21    1
    37    20    25    2
    38    21    22    1
    39    21    23    1
    40    21    24    1
    41    22    40    1
    42    22    41    1
    43    22    42    1
    44    23    43    1
    45    23    44    1
    46    23    45    1
    47    24    46    1
    48    24    47    1
    49    24    48    1
    50    25    26    1
@<TRIPOS>SUBSTRUCTURE
     1 ZINC000548281822        1 TEMP              0 ****  ****    0 ROOT


##########                                Name:    ZINC000132775118
##########                DOCK_Rotatable_Bonds:                   5
##########                         Heavy_Atoms:                  27
##########                    Molecular_Weight:             376.499
##########                DOCK_Rotatable_Bonds:                   5
##########                       Formal_Charge:        -4.76837e-07
##########                     HBond_Acceptors:                   7
##########                        HBond_Donors:                   1
##########                         Heavy_Atoms:                  27
##########                          Grid_Score:          -31.138842
##########                     Grid_vdw_energy:          -30.579691
##########                      Grid_es_energy:           -0.559151
##########           Internal_energy_repulsive:           21.416855

@<TRIPOS>MOLECULE
ZINC000132775118
 59 62 1 0 0
SMALL
USER_CHARGES


@<TRIPOS>ATOM
      1 O1        -11.5364   -2.6169   59.6302 O.2     1  ZINC000132775118   -0.5200
      2 C2        -11.7723   -2.9205   58.4800 C.2     1  ZINC000132775118    0.5200
      3 C3        -10.6406   -3.1043   57.5019 C.3     1  ZINC000132775118    0.0300
      4 N4         -9.3743   -2.7217   58.1407 N.3     1  ZINC000132775118   -0.5100
      5 C5         -8.3210   -3.7067   57.8541 C.3     1  ZINC000132775118    0.0300
      6 C6         -6.9854   -3.2051   58.3222 C.2     1  ZINC000132775118    0.5300
      7 O7         -6.0738   -3.9988   58.4220 O.2     1  ZINC000132775118   -0.5500
      8 N8         -6.7516   -1.9232   58.6344 N.am    1  ZINC000132775118   -0.7200
      9 C9         -7.8059   -0.9187   58.6077 C.3     1  ZINC000132775118    0.1500
     10 H10        -8.1910   -0.7828   59.6184 H       1  ZINC000132775118    0.0800
     11 C11        -7.2919    0.4222   58.0886 C.3     1  ZINC000132775118   -0.1300
     12 C12        -8.4309    1.4453   58.1464 C.3     1  ZINC000132775118   -0.1200
     13 C13        -9.6058    0.9677   57.2926 C.3     1  ZINC000132775118   -0.1200
     14 C14       -10.1006   -0.3920   57.7960 C.3     1  ZINC000132775118   -0.1200
     15 C15        -8.9453   -1.3892   57.7012 C.3     1  ZINC000132775118    0.0700
     16 H16        -8.6042   -1.4506   56.6678 H       1  ZINC000132775118    0.0600
     17 N17       -13.0462   -3.0990   58.0780 N.am    1  ZINC000132775118   -0.6200
     18 C18       -14.1604   -2.9176   59.0185 C.3     1  ZINC000132775118    0.1100
     19 C19       -15.1584   -1.9243   58.4149 C.3     1  ZINC000132775118   -0.1200
     20 C20       -15.5805   -2.4113   57.0268 C.3     1  ZINC000132775118   -0.1000
     21 C21       -16.5882   -1.4543   56.4439 C.2     1  ZINC000132775118    0.5300
     22 O22       -16.5531   -0.2797   56.7440 O.2     1  ZINC000132775118   -0.5300
     23 N23       -17.5283   -1.9037   55.5892 N.am    1  ZINC000132775118   -0.6200
     24 C24       -17.6887   -3.2968   55.1470 C.3     1  ZINC000132775118    0.1000
     25 C25       -18.8719   -3.3298   54.1569 C.3     1  ZINC000132775118   -0.1300
     26 C26       -18.9526   -1.8614   53.6625 C.3     1  ZINC000132775118   -0.1300
     27 C27       -18.5702   -1.0813   54.9478 C.3     1  ZINC000132775118    0.1000
     28 C28       -14.3543   -2.4794   56.1135 C.3     1  ZINC000132775118   -0.1200
     29 C29       -13.3476   -3.4730   56.6895 C.3     1  ZINC000132775118    0.1200
     30 H30       -10.5918   -4.1490   57.1950 H       1  ZINC000132775118    0.0700
     31 H31       -10.8107   -2.4763   56.6273 H       1  ZINC000132775118    0.1200
     32 H32        -8.5535   -4.6405   58.3660 H       1  ZINC000132775118    0.1300
     33 H33        -8.2807   -3.8872   56.7799 H       1  ZINC000132775118    0.0700
     34 H34        -5.8536   -1.6562   58.8860 H       1  ZINC000132775118    0.4000
     35 H35        -6.4642    0.7618   58.7114 H       1  ZINC000132775118    0.0800
     36 H36        -6.9540    0.3097   57.0585 H       1  ZINC000132775118    0.0700
     37 H37        -8.7589    1.5638   59.1792 H       1  ZINC000132775118    0.0700
     38 H38        -8.0756    2.4041   57.7690 H       1  ZINC000132775118    0.0700
     39 H39       -10.4167    1.6934   57.3546 H       1  ZINC000132775118    0.0700
     40 H40        -9.2846    0.8744   56.2551 H       1  ZINC000132775118    0.0600
     41 H41       -10.4323   -0.2998   58.8301 H       1  ZINC000132775118    0.0800
     42 H42       -10.9283   -0.7325   57.1740 H       1  ZINC000132775118    0.0700
     43 H43       -14.6544   -3.8742   59.1886 H       1  ZINC000132775118    0.0800
     44 H44       -13.7815   -2.5265   59.9628 H       1  ZINC000132775118    0.0900
     45 H45       -16.0355   -1.8538   59.0580 H       1  ZINC000132775118    0.0800
     46 H46       -14.6895   -0.9440   58.3294 H       1  ZINC000132775118    0.0800
     47 H47       -16.0266   -3.4024   57.1098 H       1  ZINC000132775118    0.0900
     48 H48       -16.7795   -3.6347   54.6497 H       1  ZINC000132775118    0.0700
     49 H49       -17.9042   -3.9351   56.0038 H       1  ZINC000132775118    0.0700
     50 H50       -18.6619   -4.0050   53.3274 H       1  ZINC000132775118    0.0800
     51 H51       -19.7924   -3.6166   54.6655 H       1  ZINC000132775118    0.0800
     52 H52       -18.2352   -1.6785   52.8626 H       1  ZINC000132775118    0.0800
     53 H53       -19.9643   -1.6118   53.3426 H       1  ZINC000132775118    0.0900
     54 H54       -19.4365   -0.9793   55.6015 H       1  ZINC000132775118    0.0700
     55 H55       -18.1700   -0.1005   54.6912 H       1  ZINC000132775118    0.0800
     56 H56       -14.6593   -2.8039   55.1186 H       1  ZINC000132775118    0.0800
     57 H57       -13.8931   -1.4939   56.0497 H       1  ZINC000132775118    0.0800
     58 H58       -12.4329   -3.4513   56.0970 H       1  ZINC000132775118    0.1000
     59 H59       -13.7733   -4.4763   56.6716 H       1  ZINC000132775118    0.0700
@<TRIPOS>BOND
     1     1     2    2
     2     2     3    1
     3     2    17   am
     4     3     4    1
     5     3    30    1
     6     3    31    1
     7     4    15    1
     8     4     5    1
     9     5     6    1
    10     5    32    1
    11     5    33    1
    12     6     7    2
    13     6     8   am
    14     8     9    1
    15     8    34    1
    16     9    10    1
    17     9    15    1
    18     9    11    1
    19    11    12    1
    20    11    35    1
    21    11    36    1
    22    12    13    1
    23    12    37    1
    24    12    38    1
    25    13    14    1
    26    13    39    1
    27    13    40    1
    28    14    15    1
    29    14    41    1
    30    14    42    1
    31    15    16    1
    32    17    29    1
    33    17    18    1
    34    18    19    1
    35    18    43    1
    36    18    44    1
    37    19    20    1
    38    19    45    1
    39    19    46    1
    40    20    21    1
    41    20    28    1
    42    20    47    1
    43    21    22    2
    44    21    23   am
    45    23    27    1
    46    23    24    1
    47    24    25    1
    48    24    48    1
    49    24    49    1
    50    25    26    1
    51    25    50    1
    52    25    51    1
    53    26    27    1
    54    26    52    1
    55    26    53    1
    56    27    54    1
    57    27    55    1
    58    28    29    1
    59    28    56    1
    60    28    57    1
    61    29    58    1
    62    29    59    1
@<TRIPOS>SUBSTRUCTURE
     1 ZINC000132775118        1 TEMP              0 ****  ****    0 ROOT


##########                                Name:    ZINC000816269301
##########                DOCK_Rotatable_Bonds:                   7
##########                         Heavy_Atoms:                  25
##########                    Molecular_Weight:             358.784
##########                DOCK_Rotatable_Bonds:                   7
##########                       Formal_Charge:           0.0100002
##########                     HBond_Acceptors:                   8
##########                        HBond_Donors:                   1
##########                         Heavy_Atoms:                  25
##########                          Grid_Score:          -31.134504
##########                     Grid_vdw_energy:          -31.396034
##########                      Grid_es_energy:            0.261530
##########           Internal_energy_repulsive:            7.200758

@<TRIPOS>MOLECULE
ZINC000816269301
 40 42 1 0 0
SMALL
USER_CHARGES


@<TRIPOS>ATOM
      1 C1         -1.7498    0.9116   45.3814 C.3     1  ZINC000816269301    0.1000
      2 N2         -1.6872    0.7939   46.8403 N.pl3   1  ZINC000816269301   -0.4000
      3 N3         -0.8363   -0.0425   47.5770 N.2     1  ZINC000816269301    0.0000
      4 N4         -1.0584    0.1179   48.8338 N.2     1  ZINC000816269301   -0.2000
      5 C5         -2.0354    1.0371   49.0209 C.ar    1  ZINC000816269301   -0.0300
      6 C6         -2.6412    1.5661   50.1636 C.ar    1  ZINC000816269301    0.0500
      7 C7         -3.6421    2.5208   50.0293 C.ar    1  ZINC000816269301   -0.1400
      8 C8         -4.2864    3.0845   51.2315 C.2     1  ZINC000816269301    0.5200
      9 O9         -3.8195    4.0711   51.7649 O.2     1  ZINC000816269301   -0.5000
     10 O10        -5.3925    2.5051   51.7375 O.3     1  ZINC000816269301   -0.3500
     11 C11        -6.1225    1.6034   50.8644 C.3     1  ZINC000816269301    0.0500
     12 C12        -7.5993    1.5907   51.2642 C.3     1  ZINC000816269301    0.1200
     13 N13        -7.7285    1.1047   52.6401 N.am    1  ZINC000816269301   -0.7200
     14 C14        -8.7833    0.3417   52.9892 C.2     1  ZINC000816269301    0.5600
     15 O15        -9.6266    0.0555   52.1617 O.2     1  ZINC000816269301   -0.5300
     16 C16        -8.9145   -0.1470   54.3776 C.ar    1  ZINC000816269301   -0.1300
     17 C17        -7.9746    0.2213   55.3420 C.ar    1  ZINC000816269301   -0.0700
     18 C18        -8.1022   -0.2379   56.6360 C.ar    1  ZINC000816269301   -0.1200
     19 C19        -9.1605   -1.0630   56.9797 C.ar    1  ZINC000816269301   -0.0100
     20 Cl20       -9.3150   -1.6367   58.6109 Cl      1  ZINC000816269301   -0.0600
     21 C21       -10.0961   -1.4318   56.0273 C.ar    1  ZINC000816269301   -0.1200
     22 C22        -9.9821   -0.9742   54.7315 C.ar    1  ZINC000816269301   -0.0500
     23 C23        -4.0422    2.9511   48.7556 C.ar    1  ZINC000816269301   -0.0200
     24 C24        -3.4550    2.4387   47.6375 C.ar    1  ZINC000816269301   -0.1300
     25 C25        -2.4459    1.4854   47.7514 C.ar    1  ZINC000816269301    0.1100
     26 H26        -1.0544    1.6822   45.0488 H       1  ZINC000816269301    0.0900
     27 H27        -1.4793   -0.0421   44.9280 H       1  ZINC000816269301    0.1000
     28 H28        -2.7624    1.1820   45.0818 H       1  ZINC000816269301    0.1000
     29 H29        -2.3338    1.2350   51.1447 H       1  ZINC000816269301    0.1600
     30 H30        -6.0284    1.9414   49.8323 H       1  ZINC000816269301    0.0800
     31 H31        -5.7125    0.5976   50.9561 H       1  ZINC000816269301    0.1000
     32 H32        -8.0029    2.6009   51.1963 H       1  ZINC000816269301    0.1000
     33 H33        -8.1517    0.9329   50.5932 H       1  ZINC000816269301    0.0900
     34 H34        -7.0549    1.3321   53.3001 H       1  ZINC000816269301    0.4000
     35 H35        -7.1489    0.8642   55.0751 H       1  ZINC000816269301    0.1400
     36 H36        -7.3756    0.0460   57.3828 H       1  ZINC000816269301    0.1400
     37 H37       -10.9191   -2.0753   56.3011 H       1  ZINC000816269301    0.1400
     38 H38       -10.7125   -1.2621   53.9898 H       1  ZINC000816269301    0.1500
     39 H39        -4.8212    3.6931   48.6602 H       1  ZINC000816269301    0.1500
     40 H40        -3.7697    2.7762   46.6610 H       1  ZINC000816269301    0.1400
@<TRIPOS>BOND
     1     1     2    1
     2     1    26    1
     3     1    27    1
     4     1    28    1
     5     2    25    1
     6     2     3    1
     7     3     4    2
     8     4     5    1
     9     5    25   ar
    10     5     6   ar
    11     6     7   ar
    12     6    29    1
    13     7     8    1
    14     7    23   ar
    15     8     9    2
    16     8    10    1
    17    10    11    1
    18    11    12    1
    19    11    30    1
    20    11    31    1
    21    12    13    1
    22    12    32    1
    23    12    33    1
    24    13    14   am
    25    13    34    1
    26    14    15    2
    27    14    16    1
    28    16    22   ar
    29    16    17   ar
    30    17    18   ar
    31    17    35    1
    32    18    19   ar
    33    18    36    1
    34    19    20    1
    35    19    21   ar
    36    21    22   ar
    37    21    37    1
    38    22    38    1
    39    23    24   ar
    40    23    39    1
    41    24    25   ar
    42    24    40    1
@<TRIPOS>SUBSTRUCTURE
     1 ZINC000816269301        1 TEMP              0 ****  ****    0 ROOT


##########                                Name:    ZINC000188380122
##########                DOCK_Rotatable_Bonds:                   6
##########                         Heavy_Atoms:                  27
##########                    Molecular_Weight:             396.433
##########                DOCK_Rotatable_Bonds:                   6
##########                       Formal_Charge:           0.0299998
##########                     HBond_Acceptors:                   8
##########                        HBond_Donors:                   1
##########                         Heavy_Atoms:                  27
##########                          Grid_Score:          -31.128214
##########                     Grid_vdw_energy:          -30.552162
##########                      Grid_es_energy:           -0.576051
##########           Internal_energy_repulsive:            8.992179

@<TRIPOS>MOLECULE
ZINC000188380122
 46 49 1 0 0
SMALL
USER_CHARGES


@<TRIPOS>ATOM
      1 O1         -3.3126    1.0399   50.3638 O.2     1  ZINC000188380122   -0.5200
      2 C2         -3.6275    1.8445   49.5127 C.2     1  ZINC000188380122    0.5200
      3 C3         -4.6553    2.9029   49.8198 C.3     1  ZINC000188380122   -0.0700
      4 C4         -5.5717    2.4116   50.9107 C.2     1  ZINC000188380122    0.0900
      5 C5         -6.7205    1.7815   50.6431 C.2     1  ZINC000188380122   -0.2400
      6 S6         -7.4939    1.3723   52.1730 S.3     1  ZINC000188380122    0.1000
      7 C7         -6.1529    2.1128   53.0433 C.2     1  ZINC000188380122    0.1100
      8 C8         -6.0257    2.1953   54.5141 C.ar    1  ZINC000188380122   -0.0200
      9 C9         -4.9932    2.9384   55.0874 C.ar    1  ZINC000188380122   -0.0400
     10 C10        -4.8802    3.0118   56.4607 C.ar    1  ZINC000188380122   -0.1200
     11 C11        -5.7875    2.3503   57.2687 C.ar    1  ZINC000188380122   -0.0600
     12 C12        -6.8137    1.6116   56.7063 C.ar    1  ZINC000188380122   -0.1800
     13 C13        -7.7979    0.8946   57.5942 C.3     1  ZINC000188380122    0.5100
     14 F14        -8.1655   -0.3173   56.9997 F       1  ZINC000188380122   -0.1700
     15 F15        -7.2077    0.6441   58.8377 F       1  ZINC000188380122   -0.1700
     16 F16        -8.9343    1.6917   57.7695 F       1  ZINC000188380122   -0.1700
     17 C17        -6.9411    1.5349   55.3349 C.ar    1  ZINC000188380122   -0.0500
     18 N18        -5.2892    2.5709   52.1831 N.2     1  ZINC000188380122   -0.4300
     19 N19        -3.0540    1.7956   48.2940 N.am    1  ZINC000188380122   -0.7200
     20 C20        -2.0547    0.7668   47.9955 C.3     1  ZINC000188380122    0.1300
     21 H21        -2.3683   -0.2306   48.3038 H       1  ZINC000188380122    0.1200
     22 C22        -0.6326    1.1359   48.4538 C.3     1  ZINC000188380122   -0.1800
     23 C23        -0.1468    0.4952   47.1483 C.3     1  ZINC000188380122    0.0900
     24 H24        -0.0038   -0.5801   47.2555 H       1  ZINC000188380122    0.1200
     25 O25         0.9712    1.1061   46.5550 O.3     1  ZINC000188380122   -0.3700
     26 C26         0.8476    2.4067   46.0100 C.3     1  ZINC000188380122    0.0700
     27 C27        -0.3923    2.5105   45.1231 C.3     1  ZINC000188380122   -0.1600
     28 C28        -1.6310    2.2294   45.9793 C.3     1  ZINC000188380122   -0.1100
     29 C29        -1.5170    0.8273   46.5513 C.3     1  ZINC000188380122   -0.1500
     30 H30        -1.9177    0.0577   45.8915 H       1  ZINC000188380122    0.0900
     31 H31        -4.1531    3.8125   50.1495 H       1  ZINC000188380122    0.1100
     32 H32        -5.2383    3.1143   48.9234 H       1  ZINC000188380122    0.1100
     33 H33        -7.1076    1.5616   49.6592 H       1  ZINC000188380122    0.1800
     34 H34        -4.2837    3.4547   54.4577 H       1  ZINC000188380122    0.1500
     35 H35        -4.0816    3.5867   56.9057 H       1  ZINC000188380122    0.1400
     36 H36        -5.6944    2.4103   58.3429 H       1  ZINC000188380122    0.1500
     37 H37        -7.7425    0.9582   54.8973 H       1  ZINC000188380122    0.1400
     38 H38        -3.3029    2.4417   47.6146 H       1  ZINC000188380122    0.4000
     39 H39        -0.4545    2.2099   48.5076 H       1  ZINC000188380122    0.0900
     40 H40        -0.3092    0.6053   49.3493 H       1  ZINC000188380122    0.0800
     41 H41         0.7687    3.1295   46.8220 H       1  ZINC000188380122    0.0500
     42 H42         1.7331    2.6319   45.4157 H       1  ZINC000188380122    0.1000
     43 H43        -0.4582    3.5139   44.7025 H       1  ZINC000188380122    0.0800
     44 H44        -0.3293    1.7774   44.3189 H       1  ZINC000188380122    0.0800
     45 H45        -1.6848    2.9530   46.7926 H       1  ZINC000188380122    0.0700
     46 H46        -2.5262    2.3030   45.3621 H       1  ZINC000188380122    0.0800
@<TRIPOS>BOND
     1     1     2    2
     2     2     3    1
     3     2    19   am
     4     3     4    1
     5     3    31    1
     6     3    32    1
     7     4    18    1
     8     4     5    2
     9     5     6    1
    10     5    33    1
    11     6     7    1
    12     7     8    1
    13     7    18    2
    14     8    17   ar
    15     8     9   ar
    16     9    10   ar
    17     9    34    1
    18    10    11   ar
    19    10    35    1
    20    11    12   ar
    21    11    36    1
    22    12    13    1
    23    12    17   ar
    24    13    14    1
    25    13    15    1
    26    13    16    1
    27    17    37    1
    28    19    20    1
    29    19    38    1
    30    20    21    1
    31    20    29    1
    32    20    22    1
    33    22    23    1
    34    22    39    1
    35    22    40    1
    36    23    24    1
    37    23    29    1
    38    23    25    1
    39    25    26    1
    40    26    27    1
    41    26    41    1
    42    26    42    1
    43    27    28    1
    44    27    43    1
    45    27    44    1
    46    28    29    1
    47    28    45    1
    48    28    46    1
    49    29    30    1
@<TRIPOS>SUBSTRUCTURE
     1 ZINC000188380122        1 TEMP              0 ****  ****    0 ROOT


##########                                Name:    ZINC001139743874
##########                DOCK_Rotatable_Bonds:                   5
##########                         Heavy_Atoms:                  28
##########                    Molecular_Weight:             382.506
##########                DOCK_Rotatable_Bonds:                   5
##########                       Formal_Charge:           0.0199992
##########                     HBond_Acceptors:                   6
##########                        HBond_Donors:                   0
##########                         Heavy_Atoms:                  28
##########                          Grid_Score:          -31.124712
##########                     Grid_vdw_energy:          -30.066469
##########                      Grid_es_energy:           -1.058243
##########           Internal_energy_repulsive:           12.769002

@<TRIPOS>MOLECULE
ZINC001139743874
 58 61 1 0 0
SMALL
USER_CHARGES


@<TRIPOS>ATOM
      1 C1        -13.2838   -2.6765   56.2971 C.3     1  ZINC001139743874   -0.1800
      2 C2        -13.4767   -2.9377   57.7923 C.3     1  ZINC001139743874    0.1400
      3 C3        -14.6878   -2.1497   58.2956 C.3     1  ZINC001139743874   -0.1800
      4 C4        -13.7090   -4.4322   58.0231 C.3     1  ZINC001139743874   -0.1400
      5 O5        -12.2901   -2.5150   58.5145 O.3     1  ZINC001139743874   -0.3600
      6 C6        -11.1027   -2.7270   57.9165 C.2     1  ZINC001139743874    0.6500
      7 O7        -10.7022   -3.8616   57.7461 O.2     1  ZINC001139743874   -0.5700
      8 N8        -10.3581   -1.6810   57.5069 N.am    1  ZINC001139743874   -0.5900
      9 C9         -9.0958   -1.8877   56.8707 C.3     1  ZINC001139743874    0.1000
     10 C10        -7.8770   -2.0456   57.8237 C.3     1  ZINC001139743874   -0.1300
     11 C11        -8.0108   -1.0366   59.0008 C.3     1  ZINC001139743874   -0.0900
     12 C12        -8.5599    0.2762   58.5474 C.3     1  ZINC001139743874   -0.0800
     13 C13        -7.8192    1.5203   59.0519 C.3     1  ZINC001139743874    0.0100
     14 N14        -7.0541    1.4486   57.7860 N.3     1  ZINC001139743874   -0.4700
     15 C15        -6.8874    2.7832   57.1954 C.3     1  ZINC001139743874    0.0600
     16 C16        -5.9521    2.6978   56.0168 C.ar    1  ZINC001139743874   -0.1200
     17 C17        -4.5910    2.9424   56.1882 C.ar    1  ZINC001139743874    0.1500
     18 N18        -3.7490    2.8768   55.1854 N.ar    1  ZINC001139743874   -0.4600
     19 C19        -4.1610    2.5711   53.9529 C.ar    1  ZINC001139743874    0.0800
     20 C20        -3.2534    2.5009   52.8770 C.ar    1  ZINC001139743874   -0.0400
     21 C21        -3.7395    2.1830   51.6418 C.ar    1  ZINC001139743874   -0.1600
     22 C22        -5.1010    1.9384   51.4702 C.ar    1  ZINC001139743874    0.1300
     23 N23        -5.9429    2.0045   52.4728 N.ar    1  ZINC001139743874   -0.4700
     24 C24        -5.5308    2.3099   53.7056 C.ar    1  ZINC001139743874    0.0800
     25 C25        -6.4375    2.3751   54.7821 C.ar    1  ZINC001139743874   -0.0400
     26 C26        -8.1618    0.7139   57.1331 C.3     1  ZINC001139743874    0.0000
     27 C27       -10.0700    0.3168   58.8011 C.3     1  ZINC001139743874   -0.1300
     28 C28       -10.8382   -0.2765   57.7028 C.3     1  ZINC001139743874    0.1400
     29 H29       -13.1184   -1.6118   56.1326 H       1  ZINC001139743874    0.0900
     30 H30       -12.4210   -3.2379   55.9386 H       1  ZINC001139743874    0.0600
     31 H31       -14.1745   -2.9938   55.7549 H       1  ZINC001139743874    0.0700
     32 H32       -15.5785   -2.4670   57.7534 H       1  ZINC001139743874    0.0700
     33 H33       -14.8253   -2.3359   59.3607 H       1  ZINC001139743874    0.0600
     34 H34       -14.5224   -1.0849   58.1311 H       1  ZINC001139743874    0.0900
     35 H35       -12.8461   -4.9936   57.6646 H       1  ZINC001139743874    0.0700
     36 H36       -13.8464   -4.6183   59.0882 H       1  ZINC001139743874    0.0700
     37 H37       -14.5997   -4.7495   57.4809 H       1  ZINC001139743874    0.0800
     38 H38        -9.1667   -2.7853   56.2562 H       1  ZINC001139743874    0.0700
     39 H39        -8.9047   -1.0424   56.2097 H       1  ZINC001139743874    0.0900
     40 H40        -7.8516   -3.0620   58.2167 H       1  ZINC001139743874    0.0700
     41 H41        -6.9572   -1.8441   57.2745 H       1  ZINC001139743874    0.0800
     42 H42        -8.6751   -1.4577   59.7555 H       1  ZINC001139743874    0.0600
     43 H43        -7.0282   -0.8762   59.4445 H       1  ZINC001139743874    0.0700
     44 H44        -8.4507    2.4048   59.1347 H       1  ZINC001139743874    0.0700
     45 H45        -7.2152    1.3420   59.9416 H       1  ZINC001139743874    0.0900
     46 H46        -7.8560    3.1576   56.8641 H       1  ZINC001139743874    0.0600
     47 H47        -6.4715    3.4611   57.9408 H       1  ZINC001139743874    0.0900
     48 H48        -4.2207    3.1925   57.1714 H       1  ZINC001139743874    0.1700
     49 H49        -2.2012    2.6937   53.0258 H       1  ZINC001139743874    0.1500
     50 H50        -3.0692    2.1212   50.7972 H       1  ZINC001139743874    0.1500
     51 H51        -5.4715    1.6885   50.4869 H       1  ZINC001139743874    0.1700
     52 H52        -7.4891    2.1787   54.6338 H       1  ZINC001139743874    0.1400
     53 H53        -7.8304   -0.1061   56.4959 H       1  ZINC001139743874    0.1000
     54 H54        -8.8943    1.3607   56.6503 H       1  ZINC001139743874    0.0700
     55 H55       -10.2881   -0.2268   59.7203 H       1  ZINC001139743874    0.0700
     56 H56       -10.3790    1.3547   58.9254 H       1  ZINC001139743874    0.0800
     57 H57       -10.6817    0.3005   56.7914 H       1  ZINC001139743874    0.0800
     58 H58       -11.8981   -0.2820   57.9571 H       1  ZINC001139743874    0.1000
@<TRIPOS>BOND
     1     1     2    1
     2     1    29    1
     3     1    30    1
     4     1    31    1
     5     2     3    1
     6     2     4    1
     7     2     5    1
     8     3    32    1
     9     3    33    1
    10     3    34    1
    11     4    35    1
    12     4    36    1
    13     4    37    1
    14     5     6    1
    15     6     7    2
    16     6     8   am
    17     8    28    1
    18     8     9    1
    19     9    10    1
    20     9    38    1
    21     9    39    1
    22    10    11    1
    23    10    40    1
    24    10    41    1
    25    11    12    1
    26    11    42    1
    27    11    43    1
    28    12    26    1
    29    12    13    1
    30    12    27    1
    31    13    14    1
    32    13    44    1
    33    13    45    1
    34    14    15    1
    35    14    26    1
    36    15    16    1
    37    15    46    1
    38    15    47    1
    39    16    25   ar
    40    16    17   ar
    41    17    18   ar
    42    17    48    1
    43    18    19   ar
    44    19    24   ar
    45    19    20   ar
    46    20    21   ar
    47    20    49    1
    48    21    22   ar
    49    21    50    1
    50    22    23   ar
    51    22    51    1
    52    23    24   ar
    53    24    25   ar
    54    25    52    1
    55    26    53    1
    56    26    54    1
    57    27    28    1
    58    27    55    1
    59    27    56    1
    60    28    57    1
    61    28    58    1
@<TRIPOS>SUBSTRUCTURE
     1 ZINC001139743874        1 TEMP              0 ****  ****    0 ROOT


##########                                Name:    ZINC000880838037
##########                DOCK_Rotatable_Bonds:                   9
##########                         Heavy_Atoms:                  24
##########                    Molecular_Weight:             365.477
##########                DOCK_Rotatable_Bonds:                   9
##########                       Formal_Charge:           0.0200001
##########                     HBond_Acceptors:                   8
##########                        HBond_Donors:                   3
##########                         Heavy_Atoms:                  24
##########                          Grid_Score:          -31.119398
##########                     Grid_vdw_energy:          -30.509144
##########                      Grid_es_energy:           -0.610254
##########           Internal_energy_repulsive:           10.383265

@<TRIPOS>MOLECULE
ZINC000880838037
 43 44 1 0 0
SMALL
USER_CHARGES


@<TRIPOS>ATOM
      1 C1        -12.0101   -0.8829   55.6658 C.3     1  ZINC000880838037    0.0300
      2 O2        -10.9719   -1.2506   54.7552 O.3     1  ZINC000880838037   -0.3100
      3 C3         -9.9175   -0.4004   54.6459 C.ar    1  ZINC000880838037    0.1400
      4 C4         -9.0781   -0.1922   55.7312 C.ar    1  ZINC000880838037   -0.2200
      5 C5         -8.0052    0.6722   55.6215 C.ar    1  ZINC000880838037   -0.0700
      6 C6         -7.7654    1.3321   54.4319 C.ar    1  ZINC000880838037   -0.1500
      7 C7         -8.6028    1.1278   53.3423 C.ar    1  ZINC000880838037    0.1800
      8 N8         -8.3599    1.7962   52.1372 N.am    1  ZINC000880838037   -0.6700
      9 C9         -7.6019    1.2160   51.1857 C.2     1  ZINC000880838037    0.5200
     10 O10        -7.1304    0.1146   51.3740 O.2     1  ZINC000880838037   -0.4900
     11 C11        -7.3404    1.9359   49.8879 C.3     1  ZINC000880838037   -0.0600
     12 C12        -6.1347    2.8268   50.0418 C.2     1  ZINC000880838037    0.1000
     13 C13        -6.2260    4.1057   50.4082 C.2     1  ZINC000880838037   -0.2600
     14 S14        -4.5979    4.7760   50.4663 S.3     1  ZINC000880838037    0.1300
     15 C15        -3.9484    3.2677   49.9908 C.2     1  ZINC000880838037    0.0100
     16 S16        -2.2335    2.9344   49.7608 S.3     1  ZINC000880838037    0.1000
     17 C17        -2.3358    1.3664   48.8625 C.3     1  ZINC000880838037   -0.1500
     18 H18        -3.1497    0.7668   49.2699 H       1  ZINC000880838037    0.1200
     19 C19        -1.0169    0.6056   49.0127 C.3     1  ZINC000880838037   -0.1500
     20 C20        -2.5948    1.6395   47.4032 C.2     1  ZINC000880838037    0.5400
     21 N21        -2.1680    0.7674   46.4684 N.am    1  ZINC000880838037   -0.8400
     22 O22        -3.1871    2.6440   47.0701 O.2     1  ZINC000880838037   -0.5200
     23 N23        -4.9019    2.4024   49.8299 N.2     1  ZINC000880838037   -0.4200
     24 C24        -9.6764    0.2552   53.4486 C.ar    1  ZINC000880838037   -0.1500
     25 C25       -10.5868    0.0312   52.2687 C.3     1  ZINC000880838037   -0.1000
     26 H26       -12.4357    0.0742   55.3642 H       1  ZINC000880838037    0.0600
     27 H27       -12.7886   -1.6459   55.6565 H       1  ZINC000880838037    0.1000
     28 H28       -11.5980   -0.7967   56.6712 H       1  ZINC000880838037    0.0600
     29 H29        -9.2635   -0.7061   56.6627 H       1  ZINC000880838037    0.1300
     30 H30        -7.3535    0.8325   56.4676 H       1  ZINC000880838037    0.1300
     31 H31        -6.9267    2.0074   54.3489 H       1  ZINC000880838037    0.1400
     32 H32        -8.7371    2.6771   51.9867 H       1  ZINC000880838037    0.4100
     33 H33        -7.1551    1.2069   49.0990 H       1  ZINC000880838037    0.1200
     34 H34        -8.2084    2.5411   49.6268 H       1  ZINC000880838037    0.1200
     35 H35        -7.1391    4.6380   50.6301 H       1  ZINC000880838037    0.1800
     36 H36        -0.2030    1.2052   48.6053 H       1  ZINC000880838037    0.0900
     37 H37        -0.8296    0.4080   50.0682 H       1  ZINC000880838037    0.0800
     38 H38        -1.0786   -0.3387   48.4717 H       1  ZINC000880838037    0.0800
     39 H39        -2.3336    0.9437   45.5290 H       1  ZINC000880838037    0.4000
     40 H40        -1.6952   -0.0365   46.7350 H       1  ZINC000880838037    0.4100
     41 H41       -10.2081   -0.7970   51.6697 H       1  ZINC000880838037    0.0700
     42 H42       -11.5898   -0.2058   52.6235 H       1  ZINC000880838037    0.0700
     43 H43       -10.6210    0.9344   51.6595 H       1  ZINC000880838037    0.0600
@<TRIPOS>BOND
     1     1     2    1
     2     1    26    1
     3     1    27    1
     4     1    28    1
     5     2     3    1
     6     3    24   ar
     7     3     4   ar
     8     4     5   ar
     9     4    29    1
    10     5     6   ar
    11     5    30    1
    12     6     7   ar
    13     6    31    1
    14     7     8    1
    15     7    24   ar
    16     8     9   am
    17     8    32    1
    18     9    10    2
    19     9    11    1
    20    11    12    1
    21    11    33    1
    22    11    34    1
    23    12    23    1
    24    12    13    2
    25    13    14    1
    26    13    35    1
    27    14    15    1
    28    15    16    1
    29    15    23    2
    30    16    17    1
    31    17    18    1
    32    17    19    1
    33    17    20    1
    34    19    36    1
    35    19    37    1
    36    19    38    1
    37    20    21   am
    38    20    22    2
    39    21    39    1
    40    21    40    1
    41    24    25    1
    42    25    41    1
    43    25    42    1
    44    25    43    1
@<TRIPOS>SUBSTRUCTURE
     1 ZINC000880838037        1 TEMP              0 ****  ****    0 ROOT


##########                                Name:    ZINC000470948647
##########                DOCK_Rotatable_Bonds:                   6
##########                         Heavy_Atoms:                  29
##########                    Molecular_Weight:             412.556
##########                DOCK_Rotatable_Bonds:                   6
##########                       Formal_Charge:           0.0100001
##########                     HBond_Acceptors:                   7
##########                        HBond_Donors:                   1
##########                         Heavy_Atoms:                  29
##########                          Grid_Score:          -31.106144
##########                     Grid_vdw_energy:          -30.393360
##########                      Grid_es_energy:           -0.712783
##########           Internal_energy_repulsive:           12.460614

@<TRIPOS>MOLECULE
ZINC000470948647
 57 60 1 0 0
SMALL
USER_CHARGES


@<TRIPOS>ATOM
      1 C1        -14.0953   -3.9941   58.3151 C.3     1  ZINC000470948647   -0.1100
      2 C2        -13.0330   -2.9693   58.0110 C.ar    1  ZINC000470948647   -0.1000
      3 C3        -12.6667   -2.7235   56.7007 C.ar    1  ZINC000470948647   -0.1100
      4 C4        -11.6933   -1.7848   56.4186 C.ar    1  ZINC000470948647   -0.1100
      5 C5        -11.0829   -1.0876   57.4526 C.ar    1  ZINC000470948647    0.1400
      6 N6        -10.0969   -0.1358   57.1703 N.am    1  ZINC000470948647   -0.6700
      7 C7        -10.4328    1.1622   57.0334 C.2     1  ZINC000470948647    0.5100
      8 O8        -11.5898    1.5053   57.1551 O.2     1  ZINC000470948647   -0.4800
      9 C9         -9.3709    2.1874   56.7294 C.3     1  ZINC000470948647    0.1200
     10 H10        -9.8526    3.1509   56.5632 H       1  ZINC000470948647    0.1200
     11 C11        -8.4305    2.3058   57.9502 C.3     1  ZINC000470948647   -0.0700
     12 S12        -7.0328    1.2213   57.4370 S.3     1  ZINC000470948647   -0.2500
     13 C13        -7.2216    1.6113   55.6479 C.3     1  ZINC000470948647    0.1600
     14 N14        -8.6770    1.7952   55.5121 N.am    1  ZINC000470948647   -0.6000
     15 C15        -9.3220    1.6160   54.3423 C.2     1  ZINC000470948647    0.6300
     16 O16       -10.5249    1.7810   54.2799 O.2     1  ZINC000470948647   -0.5100
     17 C17        -8.5675    1.2195   53.1360 C.2     1  ZINC000470948647   -0.0100
     18 N18        -7.6064    1.9062   52.5509 N.2     1  ZINC000470948647   -0.2700
     19 N19        -7.1694    1.2673   51.5257 N.pl3   1  ZINC000470948647   -0.2700
     20 C20        -6.1009    1.7356   50.6395 C.3     1  ZINC000470948647    0.1500
     21 C21        -6.1107    3.2649   50.5925 C.3     1  ZINC000470948647   -0.1300
     22 C22        -4.9947    3.7539   49.6671 C.3     1  ZINC000470948647   -0.1200
     23 C23        -3.6438    3.2686   50.1965 C.3     1  ZINC000470948647   -0.1300
     24 C24        -3.6339    1.7393   50.2435 C.3     1  ZINC000470948647   -0.1200
     25 C25        -4.7499    1.2503   51.1689 C.3     1  ZINC000470948647   -0.1300
     26 C26        -7.8364    0.1020   51.3824 C.2     1  ZINC000470948647   -0.0100
     27 C27        -8.7345    0.0272   52.3924 C.2     1  ZINC000470948647   -0.1700
     28 C28       -11.4535   -1.3366   58.7679 C.ar    1  ZINC000470948647   -0.1100
     29 C29       -10.7940   -0.5818   59.8932 C.3     1  ZINC000470948647   -0.1100
     30 C30       -12.4307   -2.2728   59.0428 C.ar    1  ZINC000470948647   -0.1000
     31 H31       -15.0736   -3.5132   58.3186 H       1  ZINC000470948647    0.0700
     32 H32       -14.0765   -4.7739   57.5537 H       1  ZINC000470948647    0.0700
     33 H33       -13.9043   -4.4363   59.2929 H       1  ZINC000470948647    0.0700
     34 H34       -13.1418   -3.2661   55.8968 H       1  ZINC000470948647    0.1200
     35 H35       -11.4070   -1.5937   55.3949 H       1  ZINC000470948647    0.1400
     36 H36        -9.1715   -0.4102   57.0731 H       1  ZINC000470948647    0.4100
     37 H37        -8.0974    3.3344   58.0895 H       1  ZINC000470948647    0.1200
     38 H38        -8.9101    1.9260   58.8523 H       1  ZINC000470948647    0.1200
     39 H39        -6.6893    2.5278   55.3938 H       1  ZINC000470948647    0.1000
     40 H40        -6.8779    0.7798   55.0326 H       1  ZINC000470948647    0.1400
     41 H41        -6.2612    1.3402   49.6365 H       1  ZINC000470948647    0.1100
     42 H42        -7.0732    3.6105   50.2154 H       1  ZINC000470948647    0.0800
     43 H43        -5.9503    3.6602   51.5956 H       1  ZINC000470948647    0.0800
     44 H44        -5.1552    3.3585   48.6641 H       1  ZINC000470948647    0.0700
     45 H45        -5.0018    4.8433   49.6337 H       1  ZINC000470948647    0.0800
     46 H46        -2.8488    3.6169   49.5372 H       1  ZINC000470948647    0.0700
     47 H47        -3.4834    3.6639   51.1996 H       1  ZINC000470948647    0.0700
     48 H48        -3.7944    1.3440   49.2405 H       1  ZINC000470948647    0.0700
     49 H49        -2.6715    1.3936   50.6207 H       1  ZINC000470948647    0.0700
     50 H50        -4.5895    1.6457   52.1720 H       1  ZINC000470948647    0.0700
     51 H51        -4.7429    0.1608   51.2024 H       1  ZINC000470948647    0.0700
     52 H52        -7.6792   -0.6352   50.6089 H       1  ZINC000470948647    0.1800
     53 H53        -9.4358   -0.7709   52.5857 H       1  ZINC000470948647    0.1600
     54 H54       -11.3569    0.3286   60.0990 H       1  ZINC000470948647    0.0700
     55 H55       -10.7735   -1.2060   60.7865 H       1  ZINC000470948647    0.0700
     56 H56        -9.7745   -0.3219   59.6080 H       1  ZINC000470948647    0.0600
     57 H57       -12.7195   -2.4666   60.0653 H       1  ZINC000470948647    0.1300
@<TRIPOS>BOND
     1     1     2    1
     2     1    31    1
     3     1    32    1
     4     1    33    1
     5     2    30   ar
     6     2     3   ar
     7     3     4   ar
     8     3    34    1
     9     4     5   ar
    10     4    35    1
    11     5     6    1
    12     5    28   ar
    13     6     7   am
    14     6    36    1
    15     7     8    2
    16     7     9    1
    17     9    10    1
    18     9    14    1
    19     9    11    1
    20    11    12    1
    21    11    37    1
    22    11    38    1
    23    12    13    1
    24    13    14    1
    25    13    39    1
    26    13    40    1
    27    14    15   am
    28    15    16    2
    29    15    17    1
    30    17    27    1
    31    17    18    2
    32    18    19    1
    33    19    20    1
    34    19    26    1
    35    20    25    1
    36    20    21    1
    37    20    41    1
    38    21    22    1
    39    21    42    1
    40    21    43    1
    41    22    23    1
    42    22    44    1
    43    22    45    1
    44    23    24    1
    45    23    46    1
    46    23    47    1
    47    24    25    1
    48    24    48    1
    49    24    49    1
    50    25    50    1
    51    25    51    1
    52    26    27    2
    53    26    52    1
    54    27    53    1
    55    28    29    1
    56    28    30   ar
    57    29    54    1
    58    29    55    1
    59    29    56    1
    60    30    57    1
@<TRIPOS>SUBSTRUCTURE
     1 ZINC000470948647        1 TEMP              0 ****  ****    0 ROOT


##########                                Name:    ZINC001340305486
##########                DOCK_Rotatable_Bonds:                   8
##########                         Heavy_Atoms:                  27
##########                    Molecular_Weight:             378.431
##########                DOCK_Rotatable_Bonds:                   8
##########                       Formal_Charge:          0.00999955
##########                     HBond_Acceptors:                  10
##########                        HBond_Donors:                   2
##########                         Heavy_Atoms:                  27
##########                          Grid_Score:          -31.089218
##########                     Grid_vdw_energy:          -30.958210
##########                      Grid_es_energy:           -0.131007
##########           Internal_energy_repulsive:            9.662560

@<TRIPOS>MOLECULE
ZINC001340305486
 53 55 1 0 0
SMALL
USER_CHARGES


@<TRIPOS>ATOM
      1 C1         -7.0256   -1.8084   58.6780 C.3     1  ZINC001340305486    0.0900
      2 N2         -7.9980   -1.9988   57.5989 N.am    1  ZINC001340305486   -0.7300
      3 C3         -8.4977   -0.9309   56.9459 C.2     1  ZINC001340305486    0.5200
      4 O4         -8.1435    0.1877   57.2526 O.2     1  ZINC001340305486   -0.5100
      5 C5         -9.4966   -1.1269   55.8346 C.3     1  ZINC001340305486    0.0600
      6 H6         -9.3117   -2.0820   55.3432 H       1  ZINC001340305486    0.0900
      7 C7         -9.3573    0.0091   54.8148 C.3     1  ZINC001340305486    0.0900
      8 N8        -10.4594   -0.0993   53.8458 N.am    1  ZINC001340305486   -0.5800
      9 C9        -10.2212   -0.0831   52.5194 C.2     1  ZINC001340305486    0.5100
     10 O10       -11.1437   -0.1731   51.7361 O.2     1  ZINC001340305486   -0.5200
     11 C11        -8.8210    0.0459   52.0131 C.2     1  ZINC001340305486    0.5200
     12 O12        -8.0824   -0.9169   52.0195 O.2     1  ZINC001340305486   -0.5000
     13 N13        -8.3786    1.2315   51.5495 N.am    1  ZINC001340305486   -0.6900
     14 C14        -7.0054    1.3584   51.0549 C.3     1  ZINC001340305486    0.1200
     15 C15        -6.5512    2.8141   51.1786 C.3     1  ZINC001340305486   -0.0400
     16 C16        -5.1469    2.8575   51.7238 C.2     1  ZINC001340305486    0.1700
     17 N17        -4.7985    3.1531   52.9482 N.2     1  ZINC001340305486   -0.2800
     18 N18        -3.5179    3.0858   53.0632 N.2     1  ZINC001340305486   -0.2900
     19 C19        -2.9955    2.7404   51.9211 C.2     1  ZINC001340305486    0.1900
     20 C20        -1.5364    2.5200   51.6169 C.3     1  ZINC001340305486   -0.0400
     21 C21        -1.1838    3.2354   50.3093 C.3     1  ZINC001340305486   -0.1200
     22 C22        -1.4417    2.3020   49.1303 C.3     1  ZINC001340305486   -0.1300
     23 C23        -2.6347    1.3921   49.4190 C.3     1  ZINC001340305486   -0.1400
     24 C24        -3.8934    2.2395   49.6246 C.3     1  ZINC001340305486    0.1000
     25 N25        -4.0120    2.5925   51.0398 N.pl3   1  ZINC001340305486   -0.4600
     26 C26       -11.8294   -0.2255   54.3679 C.3     1  ZINC001340305486    0.0200
     27 C27       -11.8483   -1.3500   55.4095 C.3     1  ZINC001340305486    0.0500
     28 O28       -10.8201   -1.1161   56.3748 O.3     1  ZINC001340305486   -0.3500
     29 H29        -6.1431   -1.3023   58.2867 H       1  ZINC001340305486    0.0600
     30 H30        -7.4720   -1.2027   59.4666 H       1  ZINC001340305486    0.0600
     31 H31        -6.7382   -2.7785   59.0835 H       1  ZINC001340305486    0.0800
     32 H32        -8.2822   -2.8934   57.3544 H       1  ZINC001340305486    0.4000
     33 H33        -9.4112    0.9702   55.3262 H       1  ZINC001340305486    0.0900
     34 H34        -8.4025   -0.0782   54.2961 H       1  ZINC001340305486    0.1100
     35 H35        -8.9693    2.0008   51.5433 H       1  ZINC001340305486    0.4200
     36 H36        -6.3465    0.7208   51.6444 H       1  ZINC001340305486    0.0900
     37 H37        -6.9662    1.0532   50.0092 H       1  ZINC001340305486    0.0800
     38 H38        -6.5746    3.2868   50.1968 H       1  ZINC001340305486    0.0900
     39 H39        -7.2200    3.3472   51.8545 H       1  ZINC001340305486    0.1100
     40 H40        -0.9299    2.9230   52.4279 H       1  ZINC001340305486    0.1000
     41 H41        -1.3432    1.4523   51.5118 H       1  ZINC001340305486    0.0900
     42 H42        -1.8001    4.1286   50.2068 H       1  ZINC001340305486    0.0600
     43 H43        -0.1317    3.5202   50.3235 H       1  ZINC001340305486    0.0800
     44 H44        -1.6492    2.8958   48.2401 H       1  ZINC001340305486    0.0700
     45 H45        -0.5566    1.6902   48.9556 H       1  ZINC001340305486    0.0800
     46 H46        -2.7866    0.7156   48.5778 H       1  ZINC001340305486    0.0900
     47 H47        -2.4378    0.8107   50.3197 H       1  ZINC001340305486    0.0800
     48 H48        -3.8231    3.1467   49.0245 H       1  ZINC001340305486    0.0900
     49 H49        -4.7702    1.6683   49.3196 H       1  ZINC001340305486    0.1000
     50 H50       -12.1323    0.7121   54.8343 H       1  ZINC001340305486    0.0800
     51 H51       -12.5117   -0.4680   53.5533 H       1  ZINC001340305486    0.1700
     52 H52       -12.8177   -1.3688   55.9075 H       1  ZINC001340305486    0.1200
     53 H53       -11.6728   -2.3061   54.9162 H       1  ZINC001340305486    0.0600
@<TRIPOS>BOND
     1     1     2    1
     2     1    29    1
     3     1    30    1
     4     1    31    1
     5     2     3   am
     6     2    32    1
     7     3     4    2
     8     3     5    1
     9     5     6    1
    10     5    28    1
    11     5     7    1
    12     7     8    1
    13     7    33    1
    14     7    34    1
    15     8     9   am
    16     8    26    1
    17     9    10    2
    18     9    11    1
    19    11    12    2
    20    11    13   am
    21    13    14    1
    22    13    35    1
    23    14    15    1
    24    14    36    1
    25    14    37    1
    26    15    16    1
    27    15    38    1
    28    15    39    1
    29    16    25    1
    30    16    17    2
    31    17    18    1
    32    18    19    2
    33    19    25    1
    34    19    20    1
    35    20    21    1
    36    20    40    1
    37    20    41    1
    38    21    22    1
    39    21    42    1
    40    21    43    1
    41    22    23    1
    42    22    44    1
    43    22    45    1
    44    23    24    1
    45    23    46    1
    46    23    47    1
    47    24    25    1
    48    24    48    1
    49    24    49    1
    50    26    27    1
    51    26    50    1
    52    26    51    1
    53    27    28    1
    54    27    52    1
    55    27    53    1
@<TRIPOS>SUBSTRUCTURE
     1 ZINC001340305486        1 TEMP              0 ****  ****    0 ROOT


##########                                Name:    ZINC000020646552
##########                DOCK_Rotatable_Bonds:                   5
##########                         Heavy_Atoms:                  29
##########                    Molecular_Weight:             412.556
##########                DOCK_Rotatable_Bonds:                   5
##########                       Formal_Charge:          -0.0200012
##########                     HBond_Acceptors:                   7
##########                        HBond_Donors:                   0
##########                         Heavy_Atoms:                  29
##########                          Grid_Score:          -31.083023
##########                     Grid_vdw_energy:          -29.158245
##########                      Grid_es_energy:           -1.924779
##########           Internal_energy_repulsive:           10.404022

@<TRIPOS>MOLECULE
ZINC000020646552
 57 60 1 0 0
SMALL
USER_CHARGES


@<TRIPOS>ATOM
      1 C1         -3.6799    4.5940   55.5968 C.3     1  ZINC000020646552    0.0200
      2 N2         -4.9777    3.9515   55.8436 N.3     1  ZINC000020646552   -0.5400
      3 C3         -4.9994    3.2970   57.1586 C.3     1  ZINC000020646552    0.0400
      4 C4         -6.4180    2.7984   57.4539 C.3     1  ZINC000020646552    0.1200
      5 N5         -6.8600    1.9557   56.3323 N.am    1  ZINC000020646552   -0.6100
      6 C6         -7.3624    0.7238   56.5486 C.2     1  ZINC000020646552    0.5300
      7 O7         -7.7205    0.0420   55.6118 O.2     1  ZINC000020646552   -0.5200
      8 C8         -7.4788    0.1938   57.9545 C.3     1  ZINC000020646552   -0.1500
      9 S9         -8.1697   -1.4787   57.9134 S.3     1  ZINC000020646552    0.0500
     10 C10        -9.4299   -1.3192   59.1343 C.ar    1  ZINC000020646552    0.1500
     11 N11        -9.2106   -0.6201   60.2428 N.ar    1  ZINC000020646552   -0.5200
     12 C12       -10.1585   -0.5000   61.1618 C.ar    1  ZINC000020646552    0.3800
     13 C13        -9.8823    0.2897   62.3866 C.ar    1  ZINC000020646552   -0.0500
     14 C14       -10.9262    0.6496   63.2370 C.ar    1  ZINC000020646552   -0.0700
     15 C15       -10.6633    1.3841   64.3755 C.ar    1  ZINC000020646552   -0.1300
     16 C16        -9.3666    1.7630   64.6732 C.ar    1  ZINC000020646552   -0.1000
     17 C17        -8.3267    1.4090   63.8325 C.ar    1  ZINC000020646552   -0.1300
     18 C18        -8.5771    0.6697   62.6943 C.ar    1  ZINC000020646552   -0.0700
     19 N19       -11.3466   -1.0676   61.0134 N.ar    1  ZINC000020646552   -0.5200
     20 C20       -11.6324   -1.7805   59.9312 C.ar    1  ZINC000020646552    0.2100
     21 C21       -10.6793   -1.9224   58.9488 C.ar    1  ZINC000020646552   -0.2100
     22 C22       -10.9455   -2.7070   57.6939 C.3     1  ZINC000020646552    0.1100
     23 O23       -12.0999   -3.5305   57.8636 O.3     1  ZINC000020646552   -0.3600
     24 C24       -13.2404   -2.8111   58.3457 C.3     1  ZINC000020646552    0.1100
     25 C25       -13.4460   -1.5502   57.5038 C.3     1  ZINC000020646552   -0.1800
     26 C26       -14.4836   -3.6983   58.2542 C.3     1  ZINC000020646552   -0.1400
     27 C27       -12.9919   -2.4152   59.8012 C.3     1  ZINC000020646552   -0.0900
     28 C28        -6.7396    2.4932   54.9685 C.3     1  ZINC000020646552    0.1100
     29 C29        -5.3084    3.0038   54.7711 C.3     1  ZINC000020646552    0.0400
     30 H30        -3.7163    5.1350   54.6513 H       1  ZINC000020646552    0.0700
     31 H31        -3.4596    5.2906   56.4057 H       1  ZINC000020646552    0.0700
     32 H32        -2.9008    3.8331   55.5503 H       1  ZINC000020646552    0.0300
     33 H33        -4.3103    2.4525   57.1560 H       1  ZINC000020646552    0.0400
     34 H34        -4.6978    4.0107   57.9252 H       1  ZINC000020646552    0.0900
     35 H35        -6.4164    2.2129   58.3732 H       1  ZINC000020646552    0.1000
     36 H36        -7.0907    3.6494   57.5596 H       1  ZINC000020646552    0.0800
     37 H37        -6.4917    0.1679   58.4160 H       1  ZINC000020646552    0.1300
     38 H38        -8.1342    0.8434   58.5346 H       1  ZINC000020646552    0.1200
     39 H39       -11.9389    0.3546   63.0054 H       1  ZINC000020646552    0.1400
     40 H40       -11.4714    1.6638   65.0351 H       1  ZINC000020646552    0.1300
     41 H41        -9.1655    2.3376   65.5651 H       1  ZINC000020646552    0.1300
     42 H42        -7.3163    1.7079   64.0696 H       1  ZINC000020646552    0.1300
     43 H43        -7.7645    0.3939   62.0386 H       1  ZINC000020646552    0.1300
     44 H44       -11.1116   -2.0182   56.8657 H       1  ZINC000020646552    0.0800
     45 H45       -10.0832   -3.3353   57.4710 H       1  ZINC000020646552    0.1100
     46 H46       -13.6082   -1.8307   56.4631 H       1  ZINC000020646552    0.0700
     47 H47       -14.3145   -1.0046   57.8727 H       1  ZINC000020646552    0.0700
     48 H48       -12.5616   -0.9171   57.5758 H       1  ZINC000020646552    0.0600
     49 H49       -14.3372   -4.5926   58.8599 H       1  ZINC000020646552    0.0700
     50 H50       -15.3500   -3.1485   58.6217 H       1  ZINC000020646552    0.0800
     51 H51       -14.6492   -3.9857   57.2159 H       1  ZINC000020646552    0.0700
     52 H52       -13.0324   -3.3040   60.4309 H       1  ZINC000020646552    0.1000
     53 H53       -13.7586   -1.7096   60.1212 H       1  ZINC000020646552    0.1000
     54 H54        -6.9506    1.7058   54.2448 H       1  ZINC000020646552    0.0900
     55 H55        -7.4432    3.3149   54.8353 H       1  ZINC000020646552    0.0800
     56 H56        -5.2308    3.5048   53.8062 H       1  ZINC000020646552    0.0900
     57 H57        -4.6149    2.1634   54.8017 H       1  ZINC000020646552    0.0400
@<TRIPOS>BOND
     1     1     2    1
     2     1    30    1
     3     1    31    1
     4     1    32    1
     5     2    29    1
     6     2     3    1
     7     3     4    1
     8     3    33    1
     9     3    34    1
    10     4     5    1
    11     4    35    1
    12     4    36    1
    13     5     6   am
    14     5    28    1
    15     6     7    2
    16     6     8    1
    17     8     9    1
    18     8    37    1
    19     8    38    1
    20     9    10    1
    21    10    21   ar
    22    10    11   ar
    23    11    12   ar
    24    12    13    1
    25    12    19   ar
    26    13    18   ar
    27    13    14   ar
    28    14    15   ar
    29    14    39    1
    30    15    16   ar
    31    15    40    1
    32    16    17   ar
    33    16    41    1
    34    17    18   ar
    35    17    42    1
    36    18    43    1
    37    19    20   ar
    38    20    27    1
    39    20    21   ar
    40    21    22    1
    41    22    23    1
    42    22    44    1
    43    22    45    1
    44    23    24    1
    45    24    25    1
    46    24    26    1
    47    24    27    1
    48    25    46    1
    49    25    47    1
    50    25    48    1
    51    26    49    1
    52    26    50    1
    53    26    51    1
    54    27    52    1
    55    27    53    1
    56    28    29    1
    57    28    54    1
    58    28    55    1
    59    29    56    1
    60    29    57    1
@<TRIPOS>SUBSTRUCTURE
     1 ZINC000020646552        1 TEMP              0 ****  ****    0 ROOT


##########                                Name:    ZINC000555499135
##########                DOCK_Rotatable_Bonds:                   8
##########                         Heavy_Atoms:                  26
##########                    Molecular_Weight:             377.554
##########                DOCK_Rotatable_Bonds:                   8
##########                       Formal_Charge:           0.0399999
##########                     HBond_Acceptors:                   7
##########                        HBond_Donors:                   0
##########                         Heavy_Atoms:                  26
##########                          Grid_Score:          -31.076899
##########                     Grid_vdw_energy:          -29.282288
##########                      Grid_es_energy:           -1.794611
##########           Internal_energy_repulsive:           13.191714

@<TRIPOS>MOLECULE
ZINC000555499135
 57 59 1 0 0
SMALL
USER_CHARGES


@<TRIPOS>ATOM
      1 C1        -14.8391   -3.4402   58.4933 C.3     1  ZINC000555499135   -0.1500
      2 C2        -14.0362   -2.1555   58.2793 C.3     1  ZINC000555499135   -0.0500
      3 C3        -12.6417   -2.5042   57.8269 C.2     1  ZINC000555499135   -0.2100
      4 C4        -12.2582   -2.7347   56.5677 C.2     1  ZINC000555499135    0.0300
      5 N5        -10.9794   -3.0217   56.4296 N.2     1  ZINC000555499135   -0.4500
      6 C6        -10.2628   -3.0459   57.5023 C.2     1  ZINC000555499135    0.0400
      7 C7         -8.7880   -3.3525   57.5477 C.3     1  ZINC000555499135    0.1500
      8 N8         -8.1350   -2.4732   58.5266 N.3     1  ZINC000555499135   -0.4500
      9 C9         -6.8094   -2.9881   58.8949 C.3     1  ZINC000555499135    0.0100
     10 C10        -8.0483   -1.1754   58.0484 C.2     1  ZINC000555499135    0.3500
     11 N11        -8.0086   -0.8094   56.7889 N.2     1  ZINC000555499135   -0.3100
     12 N12        -7.9292    0.4710   56.7086 N.2     1  ZINC000555499135   -0.2900
     13 C13        -7.9136    0.9934   57.9022 C.2     1  ZINC000555499135    0.2100
     14 C14        -7.8292    2.4610   58.2338 C.3     1  ZINC000555499135   -0.0300
     15 C15        -6.9463    3.1669   57.2028 C.3     1  ZINC000555499135   -0.0900
     16 C16        -7.0136    4.6793   57.4237 C.3     1  ZINC000555499135   -0.1500
     17 C17        -5.5002    2.6924   57.3594 C.3     1  ZINC000555499135   -0.1500
     18 N18        -7.9941   -0.0366   58.7981 N.pl3   1  ZINC000555499135   -0.4600
     19 C19        -8.0101    0.0617   60.2597 C.3     1  ZINC000555499135    0.1100
     20 C20        -9.2577    0.8266   60.7058 C.3     1  ZINC000555499135    0.0700
     21 H21        -9.0935    1.8965   60.5772 H       1  ZINC000555499135    0.0700
     22 C22        -9.5401    0.5271   62.1803 C.3     1  ZINC000555499135   -0.1500
     23 C23       -10.8237    1.2484   62.6031 C.3     1  ZINC000555499135   -0.1200
     24 C24       -11.9703    0.8042   61.6897 C.3     1  ZINC000555499135   -0.1600
     25 C25       -11.5940    1.0930   60.2340 C.3     1  ZINC000555499135    0.0600
     26 O26       -10.3757    0.4178   59.9152 O.3     1  ZINC000555499135   -0.3700
     27 S27       -11.2271   -2.6724   58.8639 S.3     1  ZINC000555499135    0.1200
     28 H28       -14.8893   -3.9973   57.5577 H       1  ZINC000555499135    0.0600
     29 H29       -14.3523   -4.0505   59.2540 H       1  ZINC000555499135    0.0600
     30 H30       -15.8478   -3.1881   58.8205 H       1  ZINC000555499135    0.0700
     31 H31       -14.5230   -1.5453   57.5187 H       1  ZINC000555499135    0.0900
     32 H32       -13.9860   -1.5984   59.2149 H       1  ZINC000555499135    0.0800
     33 H33       -12.9403   -2.6896   55.7317 H       1  ZINC000555499135    0.1800
     34 H34        -8.6419   -4.3926   57.8393 H       1  ZINC000555499135    0.0800
     35 H35        -8.3519   -3.1866   56.5626 H       1  ZINC000555499135    0.1200
     36 H36        -6.1462   -2.9347   58.0315 H       1  ZINC000555499135    0.0500
     37 H37        -6.3987   -2.3873   59.7063 H       1  ZINC000555499135    0.0800
     38 H38        -6.8998   -4.0246   59.2201 H       1  ZINC000555499135    0.0900
     39 H39        -8.8285    2.8958   58.2149 H       1  ZINC000555499135    0.1000
     40 H40        -7.3978    2.5847   59.2272 H       1  ZINC000555499135    0.1000
     41 H41        -7.2997    2.9302   56.1991 H       1  ZINC000555499135    0.0800
     42 H42        -8.0493    5.0112   57.3516 H       1  ZINC000555499135    0.0500
     43 H43        -6.6229    4.9198   58.4124 H       1  ZINC000555499135    0.0600
     44 H44        -6.4166    5.1843   56.6643 H       1  ZINC000555499135    0.0600
     45 H45        -5.4523    1.6149   57.2020 H       1  ZINC000555499135    0.0600
     46 H46        -4.8712    3.1952   56.6248 H       1  ZINC000555499135    0.0600
     47 H47        -5.1469    2.9291   58.3631 H       1  ZINC000555499135    0.0600
     48 H48        -8.0240   -0.9393   60.6909 H       1  ZINC000555499135    0.1100
     49 H49        -7.1191    0.5907   60.5980 H       1  ZINC000555499135    0.1200
     50 H50        -9.6642   -0.5472   62.3165 H       1  ZINC000555499135    0.0800
     51 H51        -8.7074    0.8786   62.7894 H       1  ZINC000555499135    0.0800
     52 H52       -11.0613    0.9945   63.6361 H       1  ZINC000555499135    0.0700
     53 H53       -10.6829    2.3256   62.5140 H       1  ZINC000555499135    0.0600
     54 H54       -12.1434   -0.2645   61.8159 H       1  ZINC000555499135    0.0700
     55 H55       -12.8755    1.3538   61.9477 H       1  ZINC000555499135    0.0800
     56 H56       -12.3882    0.7399   59.5764 H       1  ZINC000555499135    0.1000
     57 H57       -11.4605    2.1664   60.0993 H       1  ZINC000555499135    0.0500
@<TRIPOS>BOND
     1     1     2    1
     2     1    28    1
     3     1    29    1
     4     1    30    1
     5     2     3    1
     6     2    31    1
     7     2    32    1
     8     3    27    1
     9     3     4    2
    10     4     5    1
    11     4    33    1
    12     5     6    2
    13     6     7    1
    14     6    27    1
    15     7     8    1
    16     7    34    1
    17     7    35    1
    18     8     9    1
    19     8    10    1
    20     9    36    1
    21     9    37    1
    22     9    38    1
    23    10    18    1
    24    10    11    2
    25    11    12    1
    26    12    13    2
    27    13    14    1
    28    13    18    1
    29    14    15    1
    30    14    39    1
    31    14    40    1
    32    15    16    1
    33    15    17    1
    34    15    41    1
    35    16    42    1
    36    16    43    1
    37    16    44    1
    38    17    45    1
    39    17    46    1
    40    17    47    1
    41    18    19    1
    42    19    20    1
    43    19    48    1
    44    19    49    1
    45    20    21    1
    46    20    26    1
    47    20    22    1
    48    22    23    1
    49    22    50    1
    50    22    51    1
    51    23    24    1
    52    23    52    1
    53    23    53    1
    54    24    25    1
    55    24    54    1
    56    24    55    1
    57    25    26    1
    58    25    56    1
    59    25    57    1
@<TRIPOS>SUBSTRUCTURE
     1 ZINC000555499135        1 TEMP              0 ****  ****    0 ROOT


##########                                Name:    ZINC000291036115
##########                DOCK_Rotatable_Bonds:                   5
##########                         Heavy_Atoms:                  22
##########                    Molecular_Weight:             366.193
##########                DOCK_Rotatable_Bonds:                   5
##########                       Formal_Charge:                0.01
##########                     HBond_Acceptors:                   7
##########                        HBond_Donors:                   0
##########                         Heavy_Atoms:                  22
##########                          Grid_Score:          -31.063099
##########                     Grid_vdw_energy:          -29.442230
##########                      Grid_es_energy:           -1.620868
##########           Internal_energy_repulsive:            5.722984

@<TRIPOS>MOLECULE
ZINC000291036115
 35 37 1 0 0
SMALL
USER_CHARGES


@<TRIPOS>ATOM
      1 C1         -3.7413    3.7960   50.2733 C.3     1  <0>        -0.1500
      2 C2         -4.0913    2.4001   49.7535 C.3     1  <0>        -0.0400
      3 H3         -4.8917    2.4767   49.0176 H       1  <0>         0.0900
      4 C4         -4.5520    1.5226   50.9190 C.3     1  <0>        -0.0200
      5 C5         -6.0566    1.5454   51.0007 C.2     1  <0>         0.1900
      6 N6         -6.8074    2.5807   51.2908 N.2     1  <0>        -0.4500
      7 C7         -8.0747    2.1328   51.2459 C.2     1  <0>         0.1500
      8 C8         -9.3174    2.9447   51.5060 C.3     1  <0>         0.2300
      9 N9         -9.7272    3.6193   50.2719 N.pl3   1  <0>        -0.3900
     10 C10        -8.9211    4.0797   49.2995 C.2     1  <0>         0.2600
     11 N11        -9.6705    4.6146   48.3701 N.2     1  <0>        -0.5400
     12 C12       -10.9545    4.5151   48.7120 C.2     1  <0>         0.2000
     13 N13       -11.0405    3.9080   49.8665 N.2     1  <0>        -0.3100
     14 N14        -8.0310    0.8715   50.9364 N.2     1  <0>        -0.3600
     15 O15        -6.8811    0.5158   50.7856 O.3     1  <0>         0.0900
     16 C16        -2.8753    1.7840   49.1109 C.ar    1  <0>        -0.0900
     17 C17        -1.8303    1.3371   49.8975 C.ar    1  <0>        -0.0700
     18 C18        -0.7145    0.7713   49.3097 C.ar    1  <0>        -0.1400
     19 C19        -0.6434    0.6520   47.9325 C.ar    1  <0>         0.1300
     20 F20         0.4465    0.0988   47.3571 F       1  <0>        -0.1200
     21 C21        -1.6914    1.1002   47.1446 C.ar    1  <0>        -0.1300
     22 Br22       -1.5971    0.9380   45.2630 Br      1  <0>        -0.0200
     23 C23        -2.8086    1.6610   47.7354 C.ar    1  <0>        -0.0500
     24 H24        -4.6207    4.2417   50.7381 H       1  <0>         0.0600
     25 H25        -2.9408    3.7195   51.0091 H       1  <0>         0.0700
     26 H26        -3.4130    4.4211   49.4429 H       1  <0>         0.0700
     27 H27        -4.2123    0.4992   50.7597 H       1  <0>         0.1200
     28 H28        -4.1318    1.9043   51.8495 H       1  <0>         0.1100
     29 H29       -10.1178    2.2861   51.8431 H       1  <0>         0.1300
     30 H30        -9.1108    3.6887   52.2753 H       1  <0>         0.1200
     31 H31        -7.8428    4.0193   49.2880 H       1  <0>         0.2200
     32 H32       -11.7891    4.8738   48.1280 H       1  <0>         0.2200
     33 H33        -1.8854    1.4304   50.9720 H       1  <0>         0.1400
     34 H34         0.1019    0.4226   49.9247 H       1  <0>         0.1500
     35 H35        -3.6257    2.0106   47.1218 H       1  <0>         0.1400
@<TRIPOS>BOND
     1     1     2    1
     2     1    24    1
     3     1    25    1
     4     1    26    1
     5     2     3    1
     6     2     4    1
     7     2    16    1
     8     4     5    1
     9     4    27    1
    10     4    28    1
    11     5    15    1
    12     5     6    2
    13     6     7    1
    14     7     8    1
    15     7    14    2
    16     8     9    1
    17     8    29    1
    18     8    30    1
    19     9    13    1
    20     9    10    1
    21    10    11    2
    22    10    31    1
    23    11    12    1
    24    12    13    2
    25    12    32    1
    26    14    15    1
    27    16    23   ar
    28    16    17   ar
    29    17    18   ar
    30    17    33    1
    31    18    19   ar
    32    18    34    1
    33    19    20    1
    34    19    21   ar
    35    21    22    1
    36    21    23   ar
    37    23    35    1
@<TRIPOS>SUBSTRUCTURE
     1 <0>         1 TEMP              0 ****  ****    0 ROOT


##########                                Name:    ZINC000011157684
##########                DOCK_Rotatable_Bonds:                   7
##########                         Heavy_Atoms:                  25
##########                    Molecular_Weight:             374.866
##########                DOCK_Rotatable_Bonds:                   7
##########                       Formal_Charge:           0.0400001
##########                     HBond_Acceptors:                   6
##########                        HBond_Donors:                   2
##########                         Heavy_Atoms:                  25
##########                          Grid_Score:          -31.061819
##########                     Grid_vdw_energy:          -30.453932
##########                      Grid_es_energy:           -0.607888
##########           Internal_energy_repulsive:            8.726257

@<TRIPOS>MOLECULE
ZINC000011157684
 41 43 1 0 0
SMALL
USER_CHARGES


@<TRIPOS>ATOM
      1 O1         -8.4793    1.6044   59.3288 O.2     1  ZINC000011157684   -0.5200
      2 C2         -8.0619    0.5322   59.7126 C.2     1  ZINC000011157684    0.5100
      3 C3         -7.0992   -0.2513   58.8580 C.3     1  ZINC000011157684    0.1000
      4 N4         -7.8406   -0.9618   57.8131 N.pl3   1  ZINC000011157684   -0.7300
      5 C5         -8.1196   -2.3251   57.9573 C.ar    1  ZINC000011157684    0.2200
      6 C6         -7.1082   -3.2082   58.3094 C.ar    1  ZINC000011157684   -0.1600
      7 C7         -7.3858   -4.5542   58.4519 C.ar    1  ZINC000011157684   -0.0900
      8 C8         -8.6715   -5.0231   58.2431 C.ar    1  ZINC000011157684    0.0500
      9 F9         -8.9402   -6.3397   58.3825 F       1  ZINC000011157684   -0.1400
     10 C10        -9.6829   -4.1445   57.8921 C.ar    1  ZINC000011157684   -0.0900
     11 C11        -9.4112   -2.7967   57.7537 C.ar    1  ZINC000011157684   -0.0900
     12 Cl12      -10.6790   -1.6954   57.3136 Cl      1  ZINC000011157684   -0.0500
     13 N13        -8.4547    0.0440   60.9059 N.am    1  ZINC000011157684   -0.7200
     14 C14        -9.3906    0.8057   61.7366 C.3     1  ZINC000011157684    0.2600
     15 H15        -9.2723    1.8703   61.5348 H       1  ZINC000011157684    0.1200
     16 C16        -9.1054    0.5355   63.1916 C.2     1  ZINC000011157684   -0.1900
     17 C17        -7.9158    0.1989   63.6923 C.2     1  ZINC000011157684   -0.1200
     18 C18        -7.8947    0.0003   65.0621 C.2     1  ZINC000011157684   -0.1300
     19 C19        -9.0671    0.1756   65.6736 C.2     1  ZINC000011157684   -0.2100
     20 S20       -10.2886    0.6234   64.4899 S.3     1  ZINC000011157684    0.1100
     21 C21       -10.8024    0.3875   61.4154 C.ar    1  ZINC000011157684   -0.0900
     22 C22       -11.8430    1.2819   61.5825 C.ar    1  ZINC000011157684   -0.1100
     23 C23       -13.1381    0.8983   61.2879 C.ar    1  ZINC000011157684   -0.1100
     24 C24       -13.3923   -0.3794   60.8258 C.ar    1  ZINC000011157684   -0.1100
     25 C25       -12.3515   -1.2735   60.6578 C.ar    1  ZINC000011157684   -0.1100
     26 C26       -11.0560   -0.8886   60.9483 C.ar    1  ZINC000011157684   -0.1000
     27 H27        -6.3849    0.4307   58.3966 H       1  ZINC000011157684    0.1000
     28 H28        -6.5656   -0.9713   59.4784 H       1  ZINC000011157684    0.1000
     29 H29        -8.1380   -0.4870   57.0213 H       1  ZINC000011157684    0.4200
     30 H30        -6.1047   -2.8434   58.4719 H       1  ZINC000011157684    0.1400
     31 H31        -6.5990   -5.2412   58.7259 H       1  ZINC000011157684    0.1400
     32 H32       -10.6853   -4.5123   57.7301 H       1  ZINC000011157684    0.1500
     33 H33        -8.1179   -0.8117   61.2144 H       1  ZINC000011157684    0.4000
     34 H34        -7.0359    0.0893   63.0758 H       1  ZINC000011157684    0.1400
     35 H35        -6.9969   -0.2761   65.5952 H       1  ZINC000011157684    0.1400
     36 H36        -9.2392    0.0634   66.7339 H       1  ZINC000011157684    0.1700
     37 H37       -11.6444    2.2802   61.9436 H       1  ZINC000011157684    0.1200
     38 H38       -13.9512    1.5970   61.4191 H       1  ZINC000011157684    0.1300
     39 H39       -14.4042   -0.6793   60.5962 H       1  ZINC000011157684    0.1300
     40 H40       -12.5502   -2.2719   60.2971 H       1  ZINC000011157684    0.1300
     41 H41       -10.2429   -1.5871   60.8171 H       1  ZINC000011157684    0.1300
@<TRIPOS>BOND
     1     1     2    2
     2     2     3    1
     3     2    13   am
     4     3     4    1
     5     3    27    1
     6     3    28    1
     7     4     5    1
     8     4    29    1
     9     5    11   ar
    10     5     6   ar
    11     6     7   ar
    12     6    30    1
    13     7     8   ar
    14     7    31    1
    15     8     9    1
    16     8    10   ar
    17    10    11   ar
    18    10    32    1
    19    11    12    1
    20    13    14    1
    21    13    33    1
    22    14    15    1
    23    14    16    1
    24    14    21    1
    25    16    20    1
    26    16    17    2
    27    17    18    1
    28    17    34    1
    29    18    19    2
    30    18    35    1
    31    19    20    1
    32    19    36    1
    33    21    26   ar
    34    21    22   ar
    35    22    23   ar
    36    22    37    1
    37    23    24   ar
    38    23    38    1
    39    24    25   ar
    40    24    39    1
    41    25    26   ar
    42    25    40    1
    43    26    41    1
@<TRIPOS>SUBSTRUCTURE
     1 ZINC000011157684        1 TEMP              0 ****  ****    0 ROOT


##########                                Name:    ZINC000581017854
##########                DOCK_Rotatable_Bonds:                   6
##########                         Heavy_Atoms:                  24
##########                    Molecular_Weight:             330.334
##########                DOCK_Rotatable_Bonds:                   6
##########                       Formal_Charge:           0.0099998
##########                     HBond_Acceptors:                   6
##########                        HBond_Donors:                   2
##########                         Heavy_Atoms:                  24
##########                          Grid_Score:          -31.060308
##########                     Grid_vdw_energy:          -27.352999
##########                      Grid_es_energy:           -3.707310
##########           Internal_energy_repulsive:            3.515580

@<TRIPOS>MOLECULE
ZINC000581017854
 40 42 1 0 0
SMALL
USER_CHARGES


@<TRIPOS>ATOM
      1 C1         -7.1413    1.9779   49.9287 C.3     1  ZINC000581017854   -0.1600
      2 C2         -5.8595    2.2433   50.7210 C.3     1  ZINC000581017854    0.1500
      3 H3         -5.6923    3.3181   50.7920 H       1  ZINC000581017854    0.1100
      4 C4         -5.9975    1.6546   52.1264 C.3     1  ZINC000581017854    0.0500
      5 O5         -6.6405    2.6039   52.9794 O.3     1  ZINC000581017854   -0.3100
      6 C6         -6.2840    2.5957   54.2908 C.ar    1  ZINC000581017854    0.1600
      7 C7         -7.1795    2.1483   55.2512 C.ar    1  ZINC000581017854   -0.2200
      8 C8         -6.8160    2.1404   56.5843 C.ar    1  ZINC000581017854   -0.0500
      9 C9         -5.5610    2.5784   56.9626 C.ar    1  ZINC000581017854   -0.1900
     10 C10        -4.6644    3.0264   56.0065 C.ar    1  ZINC000581017854    0.1400
     11 F11        -3.4380    3.4542   56.3784 F       1  ZINC000581017854   -0.1300
     12 C12        -5.0222    3.0295   54.6701 C.ar    1  ZINC000581017854   -0.1900
     13 N13        -4.7248    1.6167   50.0383 N.am    1  ZINC000581017854   -0.7300
     14 C14        -3.4872    2.1321   50.1761 C.2     1  ZINC000581017854    0.5900
     15 O15        -3.3124    3.1186   50.8664 O.2     1  ZINC000581017854   -0.5400
     16 C16        -2.3491    1.5026   49.4929 C.2     1  ZINC000581017854   -0.2200
     17 C17        -1.2759    0.9008   50.0804 C.2     1  ZINC000581017854    0.1100
     18 N18        -0.4320    0.4366   49.1271 N.pl3   1  ZINC000581017854   -0.5700
     19 C19        -0.9241    0.7189   47.8694 C.ar    1  ZINC000581017854    0.1100
     20 C20        -0.4545    0.4658   46.5851 C.ar    1  ZINC000581017854   -0.1600
     21 C21        -1.1857    0.8808   45.4907 C.ar    1  ZINC000581017854    0.1200
     22 F22        -0.7260    0.6324   44.2449 F       1  ZINC000581017854   -0.1400
     23 C23        -2.3907    1.5512   45.6590 C.ar    1  ZINC000581017854   -0.1700
     24 C24        -2.8707    1.8102   46.9242 C.ar    1  ZINC000581017854   -0.0300
     25 C25        -2.1453    1.3916   48.0364 C.ar    1  ZINC000581017854   -0.0700
     26 H26        -7.9855    2.4441   50.4367 H       1  ZINC000581017854    0.0700
     27 H27        -7.0429    2.3972   48.9275 H       1  ZINC000581017854    0.0700
     28 H28        -7.3085    0.9031   49.8577 H       1  ZINC000581017854    0.0700
     29 H29        -6.5942    0.7436   52.0817 H       1  ZINC000581017854    0.0700
     30 H30        -5.0086    1.4223   52.5217 H       1  ZINC000581017854    0.0800
     31 H31        -8.1608    1.8063   54.9570 H       1  ZINC000581017854    0.1400
     32 H32        -7.5136    1.7920   57.3315 H       1  ZINC000581017854    0.1400
     33 H33        -5.2791    2.5718   58.0052 H       1  ZINC000581017854    0.1400
     34 H34        -4.3235    3.3783   53.9242 H       1  ZINC000581017854    0.1400
     35 H35        -4.8643    0.8309   49.4870 H       1  ZINC000581017854    0.4000
     36 H36        -1.1216    0.8079   51.1452 H       1  ZINC000581017854    0.1800
     37 H37         0.4010   -0.0282   49.3040 H       1  ZINC000581017854    0.4200
     38 H38         0.4814   -0.0545   46.4442 H       1  ZINC000581017854    0.1400
     39 H39        -2.9534    1.8711   44.7944 H       1  ZINC000581017854    0.1400
     40 H40        -3.8076    2.3320   47.0525 H       1  ZINC000581017854    0.1500
@<TRIPOS>BOND
     1     1     2    1
     2     1    26    1
     3     1    27    1
     4     1    28    1
     5     2     3    1
     6     2     4    1
     7     2    13    1
     8     4     5    1
     9     4    29    1
    10     4    30    1
    11     5     6    1
    12     6    12   ar
    13     6     7   ar
    14     7     8   ar
    15     7    31    1
    16     8     9   ar
    17     8    32    1
    18     9    10   ar
    19     9    33    1
    20    10    11    1
    21    10    12   ar
    22    12    34    1
    23    13    14   am
    24    13    35    1
    25    14    15    2
    26    14    16    1
    27    16    25    1
    28    16    17    2
    29    17    18    1
    30    17    36    1
    31    18    19    1
    32    18    37    1
    33    19    25   ar
    34    19    20   ar
    35    20    21   ar
    36    20    38    1
    37    21    22    1
    38    21    23   ar
    39    23    24   ar
    40    23    39    1
    41    24    25   ar
    42    24    40    1
@<TRIPOS>SUBSTRUCTURE
     1 ZINC000581017854        1 TEMP              0 ****  ****    0 ROOT


##########                                Name:    ZINC000494558165
##########                DOCK_Rotatable_Bonds:                  11
##########                         Heavy_Atoms:                  28
##########                    Molecular_Weight:             409.506
##########                DOCK_Rotatable_Bonds:                  11
##########                       Formal_Charge:        -6.55651e-07
##########                     HBond_Acceptors:                   9
##########                        HBond_Donors:                   3
##########                         Heavy_Atoms:                  28
##########                          Grid_Score:          -31.059227
##########                     Grid_vdw_energy:          -29.912035
##########                      Grid_es_energy:           -1.147192
##########           Internal_energy_repulsive:           33.138020

@<TRIPOS>MOLECULE
ZINC000494558165
 55 57 1 0 0
SMALL
USER_CHARGES


@<TRIPOS>ATOM
      1 O1         -4.6707    3.4539   49.7392 O.2     1  ZINC000494558165   -0.4400
      2 C2         -4.3701    2.2795   49.7268 C.2     1  ZINC000494558165    0.5100
      3 C3         -3.0837    1.8378   49.0778 C.3     1  ZINC000494558165    0.0300
      4 N4         -1.9443    2.3494   49.8511 N.3     1  ZINC000494558165   -0.5000
      5 C5         -1.9440    1.8007   51.2138 C.3     1  ZINC000494558165    0.0500
      6 C6         -1.3131    2.8137   52.1713 C.3     1  ZINC000494558165   -0.1100
      7 C7         -2.3440    3.2343   53.2205 C.3     1  ZINC000494558165    0.0800
      8 O8         -3.3517    4.0376   52.6030 O.3     1  ZINC000494558165   -0.5700
      9 C9         -0.6748    2.0650   49.1687 C.3     1  ZINC000494558165    0.1200
     10 H10        -0.0319    1.4571   49.8053 H       1  ZINC000494558165    0.1000
     11 C11         0.0365    3.3815   48.7903 C.3     1  ZINC000494558165   -0.1200
     12 C12        -0.4725    3.6325   47.3550 C.3     1  ZINC000494558165   -0.0900
     13 C13        -0.8155    2.2623   46.8110 C.ar    1  ZINC000494558165   -0.0900
     14 C14        -1.0108    1.8373   45.5079 C.ar    1  ZINC000494558165   -0.1100
     15 C15        -1.3213    0.5168   45.2464 C.ar    1  ZINC000494558165   -0.1100
     16 C16        -1.4374   -0.3837   46.2883 C.ar    1  ZINC000494558165   -0.1200
     17 C17        -1.2429    0.0384   47.5893 C.ar    1  ZINC000494558165   -0.1000
     18 C18        -0.9316    1.3590   47.8545 C.ar    1  ZINC000494558165   -0.1300
     19 N19        -5.1836    1.3696   50.2984 N.am    1  ZINC000494558165   -0.6900
     20 C20        -6.3341    1.7648   50.8788 C.2     1  ZINC000494558165    0.7000
     21 O21        -6.6386    2.9413   50.8856 O.2     1  ZINC000494558165   -0.5200
     22 N22        -7.1468    0.8551   51.4519 N.am    1  ZINC000494558165   -0.7300
     23 C23        -8.3982    1.2843   52.0813 C.3     1  ZINC000494558165    0.1700
     24 H24        -8.9874    1.8618   51.3689 H       1  ZINC000494558165    0.1200
     25 C25        -9.1988    0.0509   52.5350 C.3     1  ZINC000494558165   -0.1400
     26 C26       -10.3213    0.5700   53.4701 C.3     1  ZINC000494558165   -0.5800
     27 S27        -9.4453    1.8136   54.4925 S.o2    1  ZINC000494558165    2.4000
     28 O28       -10.2565    2.9732   54.6215 O.2     1  ZINC000494558165   -0.9300
     29 O29        -8.9210    1.1840   55.6534 O.2     1  ZINC000494558165   -0.9300
     30 C30        -8.0860    2.1500   53.3181 C.3     1  ZINC000494558165   -0.6200
     31 H31        -3.0453    0.7487   49.0515 H       1  ZINC000494558165    0.0700
     32 H32        -3.0372    2.2276   48.0610 H       1  ZINC000494558165    0.1200
     33 H33        -2.9689    1.5972   51.5238 H       1  ZINC000494558165    0.0900
     34 H34        -1.3681    0.8754   51.2327 H       1  ZINC000494558165    0.0400
     35 H35        -0.4548    2.3597   52.6667 H       1  ZINC000494558165    0.0700
     36 H36        -0.9873    3.6897   51.6103 H       1  ZINC000494558165    0.0800
     37 H37        -2.8031    2.3463   53.6552 H       1  ZINC000494558165    0.0500
     38 H38        -1.8509    3.8092   54.0044 H       1  ZINC000494558165    0.0400
     39 H39        -3.9865    3.5348   52.0745 H       1  ZINC000494558165    0.3800
     40 H40        -0.2659    4.1902   49.4556 H       1  ZINC000494558165    0.0900
     41 H41         1.1189    3.2538   48.8008 H       1  ZINC000494558165    0.0800
     42 H42        -1.3599    4.2651   47.3736 H       1  ZINC000494558165    0.0800
     43 H43         0.3093    4.0941   46.7518 H       1  ZINC000494558165    0.0800
     44 H44        -0.9205    2.5405   44.6931 H       1  ZINC000494558165    0.1200
     45 H45        -1.4726    0.1885   44.2287 H       1  ZINC000494558165    0.1300
     46 H46        -1.6805   -1.4164   46.0857 H       1  ZINC000494558165    0.1200
     47 H47        -1.3343   -0.6658   48.4030 H       1  ZINC000494558165    0.1200
     48 H48        -4.9412    0.4305   50.2921 H       1  ZINC000494558165    0.4100
     49 H49        -6.9033   -0.0838   51.4476 H       1  ZINC000494558165    0.4000
     50 H50        -9.6348   -0.4498   51.6704 H       1  ZINC000494558165    0.1100
     51 H51        -8.5495   -0.6368   53.0770 H       1  ZINC000494558165    0.0900
     52 H52       -11.1201    1.0365   52.8935 H       1  ZINC000494558165    0.1400
     53 H53       -10.7111   -0.2363   54.0913 H       1  ZINC000494558165    0.1400
     54 H54        -7.1296    1.8601   53.7532 H       1  ZINC000494558165    0.1500
     55 H55        -8.0744    3.2051   53.0448 H       1  ZINC000494558165    0.1500
@<TRIPOS>BOND
     1     1     2    2
     2     2     3    1
     3     2    19   am
     4     3     4    1
     5     3    31    1
     6     3    32    1
     7     4     5    1
     8     4     9    1
     9     5     6    1
    10     5    33    1
    11     5    34    1
    12     6     7    1
    13     6    35    1
    14     6    36    1
    15     7     8    1
    16     7    37    1
    17     7    38    1
    18     8    39    1
    19     9    10    1
    20     9    18    1
    21     9    11    1
    22    11    12    1
    23    11    40    1
    24    11    41    1
    25    12    13    1
    26    12    42    1
    27    12    43    1
    28    13    18   ar
    29    13    14   ar
    30    14    15   ar
    31    14    44    1
    32    15    16   ar
    33    15    45    1
    34    16    17   ar
    35    16    46    1
    36    17    18   ar
    37    17    47    1
    38    19    20   am
    39    19    48    1
    40    20    21    2
    41    20    22   am
    42    22    23    1
    43    22    49    1
    44    23    24    1
    45    23    30    1
    46    23    25    1
    47    25    26    1
    48    25    50    1
    49    25    51    1
    50    26    27    1
    51    26    52    1
    52    26    53    1
    53    27    28    2
    54    27    29    2
    55    27    30    1
    56    30    54    1
    57    30    55    1
@<TRIPOS>SUBSTRUCTURE
     1 ZINC000494558165        1 TEMP              0 ****  ****    0 ROOT


##########                                Name:    ZINC000942890482
##########                DOCK_Rotatable_Bonds:                   8
##########                         Heavy_Atoms:                  25
##########                    Molecular_Weight:             346.445
##########                DOCK_Rotatable_Bonds:                   8
##########                       Formal_Charge:          -0.0100004
##########                     HBond_Acceptors:                   5
##########                        HBond_Donors:                   0
##########                         Heavy_Atoms:                  25
##########                          Grid_Score:          -31.041965
##########                     Grid_vdw_energy:          -28.182203
##########                      Grid_es_energy:           -2.859762
##########           Internal_energy_repulsive:           31.292795

@<TRIPOS>MOLECULE
ZINC000942890482
 52 54 1 0 0
SMALL
USER_CHARGES


@<TRIPOS>ATOM
      1 C1         -8.8197    2.9100   59.3281 C.3     1  ZINC000942890482   -0.1700
      2 C2         -7.4770    2.1792   59.3914 C.3     1  ZINC000942890482    0.1000
      3 N3         -7.6984    0.7378   59.2511 N.am    1  ZINC000942890482   -0.6000
      4 C4         -7.5037    0.1390   58.0594 C.2     1  ZINC000942890482    0.5700
      5 O5         -7.1443    0.7950   57.1011 O.2     1  ZINC000942890482   -0.5100
      6 C6         -7.7270   -1.3143   57.9179 C.ar    1  ZINC000942890482   -0.1400
      7 C7         -6.8263   -2.2199   58.4822 C.ar    1  ZINC000942890482   -0.0600
      8 C8         -7.0398   -3.5752   58.3477 C.ar    1  ZINC000942890482   -0.1600
      9 C9         -8.1462   -4.0395   57.6533 C.ar    1  ZINC000942890482    0.1300
     10 F10        -8.3507   -5.3687   57.5242 F       1  ZINC000942890482   -0.1300
     11 C11        -9.0440   -3.1446   57.0911 C.ar    1  ZINC000942890482   -0.1600
     12 C12        -8.8428   -1.7877   57.2239 C.ar    1  ZINC000942890482   -0.0100
     13 C13        -9.8194   -0.8163   56.6126 C.3     1  ZINC000942890482   -0.1200
     14 C14        -8.1316   -0.0526   60.4060 C.3     1  ZINC000942890482    0.1400
     15 H15        -7.5447   -0.9669   60.4932 H       1  ZINC000942890482    0.1100
     16 C16        -9.6480   -0.3706   60.3250 C.3     1  ZINC000942890482   -0.1500
     17 C17       -10.0430   -0.5505   61.8060 C.3     1  ZINC000942890482    0.1100
     18 N18        -9.0379    0.1549   62.6146 N.am    1  ZINC000942890482   -0.6200
     19 C19        -9.0156    0.2174   63.9607 C.2     1  ZINC000942890482    0.5300
     20 O20        -9.8762   -0.3406   64.6080 O.2     1  ZINC000942890482   -0.5400
     21 C21        -7.9214    0.9807   64.6616 C.3     1  ZINC000942890482   -0.1300
     22 C22        -8.4902    1.6551   65.9116 C.3     1  ZINC000942890482   -0.0700
     23 C23        -8.1317    3.1424   65.8965 C.3     1  ZINC000942890482   -0.1600
     24 C24        -8.6632    3.9854   64.7355 C.3     1  ZINC000942890482   -0.1800
     25 C25        -9.2634    4.1443   66.1339 C.3     1  ZINC000942890482   -0.1800
     26 C26        -8.0569    0.7816   61.7092 C.3     1  ZINC000942890482    0.0900
     27 H27        -9.2988    2.7075   58.3703 H       1  ZINC000942890482    0.0600
     28 H28        -9.4619    2.5607   60.1366 H       1  ZINC000942890482    0.0600
     29 H29        -8.6549    3.9824   59.4325 H       1  ZINC000942890482    0.0700
     30 H30        -6.8348    2.5285   58.5829 H       1  ZINC000942890482    0.0900
     31 H31        -6.9978    2.3816   60.3492 H       1  ZINC000942890482    0.0900
     32 H32        -5.9639   -1.8591   59.0231 H       1  ZINC000942890482    0.1400
     33 H33        -6.3436   -4.2764   58.7835 H       1  ZINC000942890482    0.1400
     34 H34        -9.9044   -3.5117   56.5512 H       1  ZINC000942890482    0.1400
     35 H35       -10.6409   -0.6413   57.3073 H       1  ZINC000942890482    0.0900
     36 H36        -9.3126    0.1260   56.4044 H       1  ZINC000942890482    0.0700
     37 H37       -10.2112   -1.2311   55.6837 H       1  ZINC000942890482    0.0700
     38 H38       -10.1932    0.4611   59.8787 H       1  ZINC000942890482    0.1000
     39 H39        -9.8198   -1.2903   59.7657 H       1  ZINC000942890482    0.0900
     40 H40       -11.0288   -0.1199   61.9817 H       1  ZINC000942890482    0.0700
     41 H41       -10.0479   -1.6099   62.0623 H       1  ZINC000942890482    0.0700
     42 H42        -7.1261    0.2933   64.9496 H       1  ZINC000942890482    0.0900
     43 H43        -7.5202    1.7396   63.9899 H       1  ZINC000942890482    0.0900
     44 H44        -9.5744    1.5428   65.9235 H       1  ZINC000942890482    0.0700
     45 H45        -8.0667    1.1883   66.8009 H       1  ZINC000942890482    0.0700
     46 H46        -7.1469    3.3926   66.2910 H       1  ZINC000942890482    0.1000
     47 H47        -8.0280    4.7904   64.3660 H       1  ZINC000942890482    0.0900
     48 H48        -9.2683    3.4804   63.9826 H       1  ZINC000942890482    0.0900
     49 H49       -10.2633    3.7439   66.3009 H       1  ZINC000942890482    0.0900
     50 H50        -9.0230    5.0539   66.6844 H       1  ZINC000942890482    0.0900
     51 H51        -7.0564    0.7281   62.1384 H       1  ZINC000942890482    0.0800
     52 H52        -8.3310    1.8179   61.5116 H       1  ZINC000942890482    0.0900
@<TRIPOS>BOND
     1     1     2    1
     2     1    27    1
     3     1    28    1
     4     1    29    1
     5     2     3    1
     6     2    30    1
     7     2    31    1
     8     3     4   am
     9     3    14    1
    10     4     5    2
    11     4     6    1
    12     6    12   ar
    13     6     7   ar
    14     7     8   ar
    15     7    32    1
    16     8     9   ar
    17     8    33    1
    18     9    10    1
    19     9    11   ar
    20    11    12   ar
    21    11    34    1
    22    12    13    1
    23    13    35    1
    24    13    36    1
    25    13    37    1
    26    14    15    1
    27    14    26    1
    28    14    16    1
    29    16    17    1
    30    16    38    1
    31    16    39    1
    32    17    18    1
    33    17    40    1
    34    17    41    1
    35    18    19   am
    36    18    26    1
    37    19    20    2
    38    19    21    1
    39    21    22    1
    40    21    42    1
    41    21    43    1
    42    22    23    1
    43    22    44    1
    44    22    45    1
    45    23    25    1
    46    23    24    1
    47    23    46    1
    48    24    25    1
    49    24    47    1
    50    24    48    1
    51    25    49    1
    52    25    50    1
    53    26    51    1
    54    26    52    1
@<TRIPOS>SUBSTRUCTURE
     1 ZINC000942890482        1 TEMP              0 ****  ****    0 ROOT


##########                                Name:    ZINC000573650873
##########                DOCK_Rotatable_Bonds:                  10
##########                         Heavy_Atoms:                  28
##########                    Molecular_Weight:             418.843
##########                DOCK_Rotatable_Bonds:                  10
##########                       Formal_Charge:          -0.0500001
##########                     HBond_Acceptors:                   9
##########                        HBond_Donors:                   1
##########                         Heavy_Atoms:                  28
##########                          Grid_Score:          -31.038177
##########                     Grid_vdw_energy:          -28.548550
##########                      Grid_es_energy:           -2.489629
##########           Internal_energy_repulsive:           18.804443

@<TRIPOS>MOLECULE
ZINC000573650873
 50 51 1 0 0
SMALL
USER_CHARGES


@<TRIPOS>ATOM
      1 C1         -9.1232    2.5121   65.3596 C.3     1  ZINC000573650873   -0.1400
      2 C2         -8.1217    1.3559   65.3246 C.3     1  ZINC000573650873    0.0100
      3 C3         -6.7525    1.8528   65.7929 C.3     1  ZINC000573650873   -0.1400
      4 C4         -8.6022    0.2369   66.2510 C.3     1  ZINC000573650873   -0.1500
      5 C5         -8.0107    0.8297   63.9169 C.2     1  ZINC000573650873   -0.0100
      6 C6         -8.9605    0.8890   62.9549 C.2     1  ZINC000573650873   -0.1800
      7 C7         -8.3524    0.2579   61.8341 C.2     1  ZINC000573650873   -0.0300
      8 C8         -8.9541    0.0470   60.4949 C.2     1  ZINC000573650873    0.6000
      9 O9         -9.6802   -0.9071   60.2986 O.2     1  ZINC000573650873   -0.5100
     10 N10        -8.6954    0.9138   59.4958 N.am    1  ZINC000573650873   -0.5900
     11 C11        -9.2897    0.7055   58.1730 C.3     1  ZINC000573650873    0.1200
     12 C12        -8.3068   -0.0633   57.2877 C.3     1  ZINC000573650873   -0.1000
     13 C13        -8.4288   -1.5393   57.5660 C.ar    1  ZINC000573650873   -0.0800
     14 C14        -7.3806   -2.2198   58.1572 C.ar    1  ZINC000573650873   -0.1000
     15 C15        -7.4918   -3.5736   58.4127 C.ar    1  ZINC000573650873   -0.1100
     16 C16        -8.6523   -4.2476   58.0768 C.ar    1  ZINC000573650873   -0.0400
     17 Cl17       -8.7929   -5.9479   58.3979 Cl      1  ZINC000573650873   -0.0700
     18 C18        -9.7010   -3.5661   57.4851 C.ar    1  ZINC000573650873   -0.1100
     19 C19        -9.5907   -2.2111   57.2353 C.ar    1  ZINC000573650873   -0.1000
     20 C20        -7.8199    2.0643   59.7325 C.3     1  ZINC000573650873    0.0700
     21 C21        -8.5872    3.1387   60.5058 C.3     1  ZINC000573650873    0.0600
     22 H22        -9.3562    2.6667   61.1173 H       1  ZINC000573650873    0.1400
     23 O23        -7.6830    3.8566   61.3479 O.3     1  ZINC000573650873   -0.5200
     24 C24        -9.2430    4.1067   59.5191 C.3     1  ZINC000573650873    0.4300
     25 F25       -10.3626    3.4975   58.9423 F       1  ZINC000573650873   -0.1700
     26 F26        -9.6394    5.2651   60.1960 F       1  ZINC000573650873   -0.1700
     27 F27        -8.3268    4.4429   58.5167 F       1  ZINC000573650873   -0.1800
     28 N28        -7.1537   -0.0987   62.2235 N.2     1  ZINC000573650873   -0.3400
     29 O29        -6.9501    0.2173   63.3727 O.3     1  ZINC000573650873    0.1300
     30 H30        -8.7808    3.3093   64.6997 H       1  ZINC000573650873    0.0600
     31 H31       -10.0986    2.1580   65.0260 H       1  ZINC000573650873    0.0600
     32 H32        -9.2035    2.8926   66.3778 H       1  ZINC000573650873    0.0700
     33 H33        -6.8328    2.2334   66.8110 H       1  ZINC000573650873    0.0700
     34 H34        -6.0391    1.0291   65.7680 H       1  ZINC000573650873    0.0600
     35 H35        -6.4102    2.6500   65.1330 H       1  ZINC000573650873    0.0600
     36 H36        -9.5776   -0.1172   65.9174 H       1  ZINC000573650873    0.0600
     37 H37        -7.8888   -0.5868   66.2261 H       1  ZINC000573650873    0.0600
     38 H38        -8.6825    0.6175   67.2691 H       1  ZINC000573650873    0.0700
     39 H39        -9.9503    1.3159   63.0223 H       1  ZINC000573650873    0.1800
     40 H40       -10.2115    0.1327   58.2750 H       1  ZINC000573650873    0.0900
     41 H41        -9.5103    1.6710   57.7177 H       1  ZINC000573650873    0.1000
     42 H42        -8.5352    0.1289   56.2393 H       1  ZINC000573650873    0.0800
     43 H43        -7.2900    0.2645   57.5040 H       1  ZINC000573650873    0.0800
     44 H44        -6.4745   -1.6936   58.4190 H       1  ZINC000573650873    0.1300
     45 H45        -6.6727   -4.1052   58.8741 H       1  ZINC000573650873    0.1300
     46 H46       -10.6071   -4.0918   57.2223 H       1  ZINC000573650873    0.1300
     47 H47       -10.4094   -1.6789   56.7737 H       1  ZINC000573650873    0.1300
     48 H48        -6.9532    1.7480   60.3128 H       1  ZINC000573650873    0.1000
     49 H49        -7.4884    2.4713   58.7771 H       1  ZINC000573650873    0.1200
     50 H50        -7.1913    3.2969   61.9645 H       1  ZINC000573650873    0.3900
@<TRIPOS>BOND
     1     1     2    1
     2     1    30    1
     3     1    31    1
     4     1    32    1
     5     2     3    1
     6     2     4    1
     7     2     5    1
     8     3    33    1
     9     3    34    1
    10     3    35    1
    11     4    36    1
    12     4    37    1
    13     4    38    1
    14     5    29    1
    15     5     6    2
    16     6     7    1
    17     6    39    1
    18     7     8    1
    19     7    28    2
    20     8     9    2
    21     8    10   am
    22    10    11    1
    23    10    20    1
    24    11    12    1
    25    11    40    1
    26    11    41    1
    27    12    13    1
    28    12    42    1
    29    12    43    1
    30    13    19   ar
    31    13    14   ar
    32    14    15   ar
    33    14    44    1
    34    15    16   ar
    35    15    45    1
    36    16    17    1
    37    16    18   ar
    38    18    19   ar
    39    18    46    1
    40    19    47    1
    41    20    21    1
    42    20    48    1
    43    20    49    1
    44    21    22    1
    45    21    23    1
    46    21    24    1
    47    23    50    1
    48    24    25    1
    49    24    26    1
    50    24    27    1
    51    28    29    1
@<TRIPOS>SUBSTRUCTURE
     1 ZINC000573650873        1 TEMP              0 ****  ****    0 ROOT


##########                                Name:    ZINC000369046711
##########                DOCK_Rotatable_Bonds:                   8
##########                         Heavy_Atoms:                  26
##########                    Molecular_Weight:             367.467
##########                DOCK_Rotatable_Bonds:                   8
##########                       Formal_Charge:        -7.63685e-07
##########                     HBond_Acceptors:                   8
##########                        HBond_Donors:                   1
##########                         Heavy_Atoms:                  26
##########                          Grid_Score:          -31.009035
##########                     Grid_vdw_energy:          -30.183802
##########                      Grid_es_energy:           -0.825233
##########           Internal_energy_repulsive:           16.290585

@<TRIPOS>MOLECULE
ZINC000369046711
 56 58 1 0 0
SMALL
USER_CHARGES


@<TRIPOS>ATOM
      1 C1         -5.2576    2.4317   56.8358 C.3     1  ZINC000369046711   -0.1800
      2 C2         -6.5521    3.2444   56.7662 C.3     1  ZINC000369046711    0.1400
      3 C3         -7.6148    2.4468   56.0076 C.3     1  ZINC000369046711   -0.1800
      4 C4         -7.0482    3.5356   58.1838 C.3     1  ZINC000369046711   -0.1400
      5 O5         -6.3011    4.4962   56.0745 O.3     1  ZINC000369046711   -0.3700
      6 C6         -5.2884    4.5121   55.1874 C.2     1  ZINC000369046711    0.6500
      7 O7         -4.1994    4.9394   55.5162 O.2     1  ZINC000369046711   -0.5700
      8 N8         -5.4825    4.0542   53.9348 N.am    1  ZINC000369046711   -0.7100
      9 C9         -4.3801    4.0699   52.9701 C.3     1  ZINC000369046711    0.1800
     10 H10        -3.4448    3.8798   53.4966 H       1  ZINC000369046711    0.0900
     11 C11        -4.3115    5.4486   52.3143 C.3     1  ZINC000369046711   -0.1300
     12 C12        -5.6299    5.6879   51.5691 C.3     1  ZINC000369046711   -0.1200
     13 C13        -5.7430    4.6596   50.4473 C.3     1  ZINC000369046711   -0.1200
     14 C14        -5.7888    3.2369   51.0085 C.3     1  ZINC000369046711   -0.1000
     15 H15        -6.7499    3.0096   51.4696 H       1  ZINC000369046711    0.0900
     16 C16        -5.4627    2.2865   49.8240 C.3     1  ZINC000369046711    0.0400
     17 N17        -4.0024    2.0728   49.8339 N.3     1  ZINC000369046711   -0.5200
     18 C18        -3.3992    2.4990   48.5641 C.3     1  ZINC000369046711    0.1200
     19 C19        -2.4786    1.4188   48.0576 C.2     1  ZINC000369046711    0.2900
     20 N20        -1.8944    0.5030   48.7868 N.2     1  ZINC000369046711   -0.5400
     21 C21        -1.1527   -0.2869   48.0114 C.2     1  ZINC000369046711    0.2000
     22 N22        -1.2552    0.1171   46.7725 N.2     1  ZINC000369046711   -0.3200
     23 N23        -2.1191    1.2243   46.7769 N.pl3   1  ZINC000369046711   -0.3700
     24 C24        -2.5376    2.0162   45.6176 C.3     1  ZINC000369046711    0.1000
     25 C25        -1.4406    3.0224   45.2644 C.3     1  ZINC000369046711    0.0500
     26 F26        -0.2687    2.3360   44.9286 F       1  ZINC000369046711   -0.2000
     27 C27        -3.4236    2.8216   50.9748 C.3     1  ZINC000369046711    0.0500
     28 C28        -4.6018    2.9799   51.9527 C.3     1  ZINC000369046711   -0.1000
     29 H29        -4.7606    2.0382   52.4780 H       1  ZINC000369046711    0.0900
     30 H30        -4.9041    2.2243   55.8258 H       1  ZINC000369046711    0.0900
     31 H31        -4.5005    2.9999   57.3761 H       1  ZINC000369046711    0.0600
     32 H32        -5.4461    1.4921   57.3549 H       1  ZINC000369046711    0.0700
     33 H33        -7.8033    1.5072   56.5268 H       1  ZINC000369046711    0.0700
     34 H34        -8.5371    3.0258   55.9580 H       1  ZINC000369046711    0.0600
     35 H35        -7.2613    2.2394   54.9976 H       1  ZINC000369046711    0.0900
     36 H36        -6.2911    4.1038   58.7243 H       1  ZINC000369046711    0.0700
     37 H37        -7.9705    4.1146   58.1342 H       1  ZINC000369046711    0.0700
     38 H38        -7.2367    2.5959   58.7030 H       1  ZINC000369046711    0.0800
     39 H39        -6.3521    3.7143   53.6720 H       1  ZINC000369046711    0.4000
     40 H40        -4.1767    6.2137   53.0789 H       1  ZINC000369046711    0.0700
     41 H41        -3.4798    5.4804   51.6104 H       1  ZINC000369046711    0.0800
     42 H42        -6.4668    5.5730   52.2579 H       1  ZINC000369046711    0.0600
     43 H43        -5.6360    6.6931   51.1476 H       1  ZINC000369046711    0.0700
     44 H44        -6.6532    4.8494   49.8784 H       1  ZINC000369046711    0.0700
     45 H45        -4.8820    4.7557   49.7858 H       1  ZINC000369046711    0.0600
     46 H46        -5.9790    1.3357   49.9566 H       1  ZINC000369046711    0.0800
     47 H47        -5.7652    2.7467   48.8833 H       1  ZINC000369046711    0.0800
     48 H48        -4.1854    2.6796   47.8310 H       1  ZINC000369046711    0.0800
     49 H49        -2.8315    3.4160   48.7214 H       1  ZINC000369046711    0.1000
     50 H50        -0.5621   -1.1248   48.3514 H       1  ZINC000369046711    0.2200
     51 H51        -2.7106    1.3544   44.7689 H       1  ZINC000369046711    0.1200
     52 H52        -3.4576    2.5502   45.8554 H       1  ZINC000369046711    0.1100
     53 H53        -1.7622    3.6282   44.4173 H       1  ZINC000369046711    0.0900
     54 H54        -1.2503    3.6683   46.1216 H       1  ZINC000369046711    0.0800
     55 H55        -2.6168    2.2519   51.4359 H       1  ZINC000369046711    0.0900
     56 H56        -3.0652    3.7979   50.6485 H       1  ZINC000369046711    0.0600
@<TRIPOS>BOND
     1     1     2    1
     2     1    30    1
     3     1    31    1
     4     1    32    1
     5     2     3    1
     6     2     4    1
     7     2     5    1
     8     3    33    1
     9     3    34    1
    10     3    35    1
    11     4    36    1
    12     4    37    1
    13     4    38    1
    14     5     6    1
    15     6     7    2
    16     6     8   am
    17     8     9    1
    18     8    39    1
    19     9    10    1
    20     9    28    1
    21     9    11    1
    22    11    12    1
    23    11    40    1
    24    11    41    1
    25    12    13    1
    26    12    42    1
    27    12    43    1
    28    13    14    1
    29    13    44    1
    30    13    45    1
    31    14    15    1
    32    14    28    1
    33    14    16    1
    34    16    17    1
    35    16    46    1
    36    16    47    1
    37    17    18    1
    38    17    27    1
    39    18    19    1
    40    18    48    1
    41    18    49    1
    42    19    23    1
    43    19    20    2
    44    20    21    1
    45    21    22    2
    46    21    50    1
    47    22    23    1
    48    23    24    1
    49    24    25    1
    50    24    51    1
    51    24    52    1
    52    25    26    1
    53    25    53    1
    54    25    54    1
    55    27    28    1
    56    27    55    1
    57    27    56    1
    58    28    29    1
@<TRIPOS>SUBSTRUCTURE
     1 ZINC000369046711        1 TEMP              0 ****  ****    0 ROOT


##########                                Name:    ZINC000536173632
##########                DOCK_Rotatable_Bonds:                   7
##########                         Heavy_Atoms:                  29
##########                    Molecular_Weight:             407.389
##########                DOCK_Rotatable_Bonds:                   7
##########                       Formal_Charge:        -2.98023e-07
##########                     HBond_Acceptors:                   8
##########                        HBond_Donors:                   0
##########                         Heavy_Atoms:                  29
##########                          Grid_Score:          -30.995281
##########                     Grid_vdw_energy:          -30.857729
##########                      Grid_es_energy:           -0.137553
##########           Internal_energy_repulsive:           17.760992

@<TRIPOS>MOLECULE
ZINC000536173632
 49 51 1 0 0
SMALL
USER_CHARGES


@<TRIPOS>ATOM
      1 C1         -1.2357   -0.9318   47.4367 C.3     1  ZINC000536173632    0.0400
      2 O2          0.0991   -0.4232   47.6979 O.3     1  ZINC000536173632   -0.3500
      3 C3          0.1979    0.8614   48.0910 C.2     1  ZINC000536173632    0.5100
      4 O4          1.0064    1.5979   47.5623 O.2     1  ZINC000536173632   -0.5000
      5 C5         -0.6770    1.3746   49.1651 C.ar    1  ZINC000536173632   -0.1300
      6 C6         -0.1842    1.5149   50.4637 C.ar    1  ZINC000536173632   -0.0600
      7 C7         -1.0067    1.9947   51.4622 C.ar    1  ZINC000536173632   -0.1300
      8 C8         -2.3171    2.3358   51.1788 C.ar    1  ZINC000536173632   -0.0700
      9 C9         -2.8121    2.1992   49.8938 C.ar    1  ZINC000536173632   -0.0800
     10 C10        -4.2410    2.5734   49.5947 C.3     1  ZINC000536173632   -0.1000
     11 C11        -5.1678    1.7076   50.4083 C.2     1  ZINC000536173632    0.5200
     12 O12        -4.7178    0.8116   51.0907 O.2     1  ZINC000536173632   -0.5200
     13 N13        -6.4970    1.9288   50.3776 N.am    1  ZINC000536173632   -0.6200
     14 C14        -7.0663    3.0097   49.5572 C.3     1  ZINC000536173632    0.0700
     15 C15        -8.0046    3.8423   50.4383 C.3     1  ZINC000536173632    0.0500
     16 O16        -8.9401    2.9738   51.0818 O.3     1  ZINC000536173632   -0.3700
     17 C17        -8.3429    2.0222   51.9659 C.3     1  ZINC000536173632    0.1200
     18 H18        -7.7612    2.5453   52.7249 H       1  ZINC000536173632    0.0800
     19 C19        -9.4217    1.2071   52.6313 C.ar    1  ZINC000536173632   -0.0900
     20 C20        -9.0947    0.3182   53.6378 C.ar    1  ZINC000536173632   -0.0600
     21 C21       -10.0844   -0.4296   54.2483 C.ar    1  ZINC000536173632   -0.1200
     22 C22       -11.4010   -0.2879   53.8524 C.ar    1  ZINC000536173632   -0.0700
     23 C23       -11.7284    0.6021   52.8462 C.ar    1  ZINC000536173632   -0.1800
     24 C24       -13.1638    0.7563   52.4141 C.3     1  ZINC000536173632    0.5100
     25 F25       -13.2664    0.5102   51.0408 F       1  ZINC000536173632   -0.1800
     26 F26       -13.9617   -0.1565   53.1124 F       1  ZINC000536173632   -0.1800
     27 F27       -13.5960    2.0583   52.6881 F       1  ZINC000536173632   -0.1800
     28 C28       -10.7395    1.3527   52.2389 C.ar    1  ZINC000536173632   -0.0500
     29 C29        -7.4223    1.0927   51.1587 C.3     1  ZINC000536173632    0.0900
     30 C30        -1.9989    1.7267   48.8848 C.ar    1  ZINC000536173632   -0.0400
     31 H31        -1.8372   -0.8556   48.3425 H       1  ZINC000536173632    0.0600
     32 H32        -1.6988   -0.3460   46.6426 H       1  ZINC000536173632    0.0600
     33 H33        -1.1730   -1.9756   47.1289 H       1  ZINC000536173632    0.1000
     34 H34         0.8384    1.2483   50.6864 H       1  ZINC000536173632    0.1400
     35 H35        -0.6267    2.1038   52.4672 H       1  ZINC000536173632    0.1400
     36 H36        -2.9569    2.7103   51.9643 H       1  ZINC000536173632    0.1300
     37 H37        -4.4035    3.6204   49.8507 H       1  ZINC000536173632    0.1100
     38 H38        -4.4413    2.4234   48.5337 H       1  ZINC000536173632    0.1100
     39 H39        -6.2646    3.6416   49.1750 H       1  ZINC000536173632    0.1000
     40 H40        -7.6264    2.5829   48.7252 H       1  ZINC000536173632    0.0800
     41 H41        -7.4218    4.3722   51.1917 H       1  ZINC000536173632    0.0600
     42 H42        -8.5415    4.5617   49.8199 H       1  ZINC000536173632    0.1100
     43 H43        -8.0659    0.2075   53.9472 H       1  ZINC000536173632    0.1400
     44 H44        -9.8288   -1.1247   55.0343 H       1  ZINC000536173632    0.1400
     45 H45       -12.1741   -0.8725   54.3287 H       1  ZINC000536173632    0.1400
     46 H46       -10.9951    2.0479   51.4529 H       1  ZINC000536173632    0.1400
     47 H47        -8.0205    0.4741   50.4897 H       1  ZINC000536173632    0.0800
     48 H48        -6.8553    0.4567   51.8385 H       1  ZINC000536173632    0.1100
     49 H49        -2.3863    1.6209   47.8823 H       1  ZINC000536173632    0.1400
@<TRIPOS>BOND
     1     1     2    1
     2     1    31    1
     3     1    32    1
     4     1    33    1
     5     2     3    1
     6     3     4    2
     7     3     5    1
     8     5    30   ar
     9     5     6   ar
    10     6     7   ar
    11     6    34    1
    12     7     8   ar
    13     7    35    1
    14     8     9   ar
    15     8    36    1
    16     9    10    1
    17     9    30   ar
    18    10    11    1
    19    10    37    1
    20    10    38    1
    21    11    12    2
    22    11    13   am
    23    13    29    1
    24    13    14    1
    25    14    15    1
    26    14    39    1
    27    14    40    1
    28    15    16    1
    29    15    41    1
    30    15    42    1
    31    16    17    1
    32    17    18    1
    33    17    19    1
    34    17    29    1
    35    19    28   ar
    36    19    20   ar
    37    20    21   ar
    38    20    43    1
    39    21    22   ar
    40    21    44    1
    41    22    23   ar
    42    22    45    1
    43    23    24    1
    44    23    28   ar
    45    24    25    1
    46    24    26    1
    47    24    27    1
    48    28    46    1
    49    29    47    1
    50    29    48    1
    51    30    49    1
@<TRIPOS>SUBSTRUCTURE
     1 ZINC000536173632        1 TEMP              0 ****  ****    0 ROOT


##########                                Name:    ZINC000949401225
##########                DOCK_Rotatable_Bonds:                   7
##########                         Heavy_Atoms:                  24
##########                    Molecular_Weight:             332.403
##########                DOCK_Rotatable_Bonds:                   7
##########                       Formal_Charge:                0.03
##########                     HBond_Acceptors:                   7
##########                        HBond_Donors:                   1
##########                         Heavy_Atoms:                  24
##########                          Grid_Score:          -30.980045
##########                     Grid_vdw_energy:          -27.390911
##########                      Grid_es_energy:           -3.589134
##########           Internal_energy_repulsive:            9.209871

@<TRIPOS>MOLECULE
ZINC000949401225
 48 50 1 0 0
SMALL
USER_CHARGES


@<TRIPOS>ATOM
      1 C1         -1.1712    3.7025   56.3281 C.3     1  ZINC000949401225    0.0700
      2 N2         -2.5803    3.6168   55.9368 N.pl3   1  ZINC000949401225   -0.4500
      3 C3         -3.0284    3.5274   54.6511 C.2     1  ZINC000949401225   -0.0100
      4 C4         -4.3719    3.4663   54.6623 C.2     1  ZINC000949401225   -0.1700
      5 C5         -4.7756    3.5232   56.0713 C.2     1  ZINC000949401225   -0.2400
      6 C6         -6.1495    3.4884   56.6005 C.2     1  ZINC000949401225    0.5900
      7 O7         -7.0953    3.4681   55.8361 O.2     1  ZINC000949401225   -0.5500
      8 N8         -6.3587    3.4790   57.9319 N.am    1  ZINC000949401225   -0.7300
      9 C9         -7.7255    3.4462   58.4583 C.3     1  ZINC000949401225    0.1200
     10 C10        -7.7646    2.5855   59.7226 C.3     1  ZINC000949401225    0.1200
     11 H11        -6.8229    2.5997   60.2713 H       1  ZINC000949401225    0.1000
     12 C12        -8.9909    2.8527   60.6063 C.3     1  ZINC000949401225   -0.1500
     13 C13        -8.9625    1.3299   60.7972 C.3     1  ZINC000949401225    0.1000
     14 N14        -8.2881    1.2305   59.4928 N.am    1  ZINC000949401225   -0.6400
     15 C15        -8.1940    0.3056   58.5170 C.2     1  ZINC000949401225    0.5500
     16 O16        -7.5342    0.5351   57.5255 O.2     1  ZINC000949401225   -0.5200
     17 C17        -8.9086   -1.0136   58.6578 C.3     1  ZINC000949401225   -0.1400
     18 C18        -8.0343   -2.1309   58.0848 C.3     1  ZINC000949401225    0.1500
     19 H19        -7.7665   -1.9076   57.0520 H       1  ZINC000949401225    0.0900
     20 C20        -6.7606   -2.3055   58.9414 C.3     1  ZINC000949401225   -0.1200
     21 C21        -6.5450   -3.8354   58.8777 C.3     1  ZINC000949401225   -0.1600
     22 C22        -7.9235   -4.3930   58.5995 C.2     1  ZINC000949401225    0.5200
     23 O23        -8.2472   -5.5522   58.7494 O.2     1  ZINC000949401225   -0.5300
     24 N24        -8.7385   -3.4163   58.1604 N.am    1  ZINC000949401225   -0.6200
     25 C25       -10.1467   -3.6114   57.8067 C.3     1  ZINC000949401225    0.0900
     26 C26        -3.6181    3.6092   56.7948 C.2     1  ZINC000949401225    0.0800
     27 H27        -0.7731    2.6984   56.4747 H       1  ZINC000949401225    0.0800
     28 H28        -0.6062    4.2063   55.5437 H       1  ZINC000949401225    0.0900
     29 H29        -1.0856    4.2666   57.2569 H       1  ZINC000949401225    0.0900
     30 H30        -2.4060    3.5087   53.7687 H       1  ZINC000949401225    0.1700
     31 H31        -5.0237    3.3907   53.8045 H       1  ZINC000949401225    0.1500
     32 H32        -5.6045    3.4940   58.5415 H       1  ZINC000949401225    0.4000
     33 H33        -8.0467    4.4597   58.6987 H       1  ZINC000949401225    0.0700
     34 H34        -8.3935    3.0216   57.7089 H       1  ZINC000949401225    0.0900
     35 H35        -8.7746    3.4206   61.5111 H       1  ZINC000949401225    0.1000
     36 H36        -9.8620    3.2188   60.0630 H       1  ZINC000949401225    0.1000
     37 H37        -8.3398    1.0087   61.6322 H       1  ZINC000949401225    0.0900
     38 H38        -9.9531    0.8755   60.8101 H       1  ZINC000949401225    0.0800
     39 H39        -9.1046   -1.2100   59.7119 H       1  ZINC000949401225    0.1000
     40 H40        -9.8522   -0.9756   58.1136 H       1  ZINC000949401225    0.1000
     41 H41        -5.9176   -1.7741   58.4997 H       1  ZINC000949401225    0.1000
     42 H42        -6.9322   -1.9781   59.9667 H       1  ZINC000949401225    0.0800
     43 H43        -5.8600   -4.0907   58.0692 H       1  ZINC000949401225    0.1100
     44 H44        -6.1681   -4.2076   59.8303 H       1  ZINC000949401225    0.1000
     45 H45       -10.4401   -4.6360   58.0353 H       1  ZINC000949401225    0.0800
     46 H46       -10.7644   -2.9200   58.3799 H       1  ZINC000949401225    0.0600
     47 H47       -10.2832   -3.4234   56.7418 H       1  ZINC000949401225    0.0600
     48 H48        -3.5486    3.6678   57.8710 H       1  ZINC000949401225    0.1800
@<TRIPOS>BOND
     1     1     2    1
     2     1    27    1
     3     1    28    1
     4     1    29    1
     5     2    26    1
     6     2     3    1
     7     3     4    2
     8     3    30    1
     9     4     5    1
    10     4    31    1
    11     5     6    1
    12     5    26    2
    13     6     7    2
    14     6     8   am
    15     8     9    1
    16     8    32    1
    17     9    10    1
    18     9    33    1
    19     9    34    1
    20    10    11    1
    21    10    14    1
    22    10    12    1
    23    12    13    1
    24    12    35    1
    25    12    36    1
    26    13    14    1
    27    13    37    1
    28    13    38    1
    29    14    15   am
    30    15    16    2
    31    15    17    1
    32    17    18    1
    33    17    39    1
    34    17    40    1
    35    18    19    1
    36    18    24    1
    37    18    20    1
    38    20    21    1
    39    20    41    1
    40    20    42    1
    41    21    22    1
    42    21    43    1
    43    21    44    1
    44    22    23    2
    45    22    24   am
    46    24    25    1
    47    25    45    1
    48    25    46    1
    49    25    47    1
    50    26    48    1
@<TRIPOS>SUBSTRUCTURE
     1 ZINC000949401225        1 TEMP              0 ****  ****    0 ROOT


##########                                Name:    ZINC001289410668
##########                DOCK_Rotatable_Bonds:                  11
##########                         Heavy_Atoms:                  26
##########                    Molecular_Weight:             362.515
##########                DOCK_Rotatable_Bonds:                  11
##########                       Formal_Charge:          -0.0400008
##########                     HBond_Acceptors:                   6
##########                        HBond_Donors:                   1
##########                         Heavy_Atoms:                  26
##########                          Grid_Score:          -30.967443
##########                     Grid_vdw_energy:          -29.913008
##########                      Grid_es_energy:           -1.054435
##########           Internal_energy_repulsive:           13.585567

@<TRIPOS>MOLECULE
ZINC001289410668
 60 61 1 0 0
SMALL
USER_CHARGES


@<TRIPOS>ATOM
      1 C1        -11.0561   -2.2189   56.2822 C.3     1  ZINC001289410668   -0.1500
      2 C2        -10.0110   -1.2032   55.8160 C.3     1  ZINC001289410668   -0.1300
      3 C3        -10.7163    0.0357   55.2607 C.3     1  ZINC001289410668   -0.1200
      4 C4        -11.0001   -0.1639   53.7704 C.3     1  ZINC001289410668   -0.1200
      5 C5        -10.1404    0.8027   52.9536 C.3     1  ZINC001289410668   -0.1100
      6 C6         -8.7063    0.2742   52.8821 C.3     1  ZINC001289410668   -0.1400
      7 C7         -7.8826    1.1747   51.9981 C.2     1  ZINC001289410668    0.5100
      8 O8         -8.0535    1.1671   50.7974 O.2     1  ZINC001289410668   -0.5300
      9 N9         -6.9558    1.9884   52.5417 N.am    1  ZINC001289410668   -0.7200
     10 C10        -6.1562    2.8651   51.6824 C.3     1  ZINC001289410668    0.1400
     11 H11        -6.6274    2.9883   50.7072 H       1  ZINC001289410668    0.1100
     12 C12        -4.7097    2.3307   51.5367 C.3     1  ZINC001289410668    0.0800
     13 N13        -3.8986    3.5194   51.2163 N.am    1  ZINC001289410668   -0.6200
     14 C14        -2.7167    3.5127   50.5686 C.2     1  ZINC001289410668    0.5100
     15 O15        -2.1355    4.5558   50.3566 O.2     1  ZINC001289410668   -0.5100
     16 C16        -2.1174    2.2090   50.1078 C.3     1  ZINC001289410668    0.0900
     17 N17        -2.3688    2.0354   48.6750 N.pl3   1  ZINC001289410668   -0.4500
     18 C18        -3.2586    2.7453   47.9147 C.2     1  ZINC001289410668   -0.0500
     19 C19        -3.1684    2.2653   46.6597 C.2     1  ZINC001289410668   -0.0200
     20 N20        -2.2487    1.2890   46.6539 N.2     1  ZINC001289410668   -0.4800
     21 C21        -1.7618    1.1492   47.8565 C.2     1  ZINC001289410668    0.2300
     22 C22        -0.7043    0.1568   48.2661 C.3     1  ZINC001289410668   -0.0100
     23 C23        -0.9651   -1.1818   47.5725 C.3     1  ZINC001289410668   -0.1400
     24 C24         0.6735    0.6825   47.8586 C.3     1  ZINC001289410668   -0.1400
     25 C25        -4.5931    4.7135   51.7197 C.3     1  ZINC001289410668    0.1100
     26 C26        -5.9148    4.2393   52.3610 C.3     1  ZINC001289410668   -0.1100
     27 H27        -5.8002    4.1218   53.4386 H       1  ZINC001289410668    0.0900
     28 C28        -7.0510    5.2133   52.0426 C.3     1  ZINC001289410668   -0.1400
     29 H29       -10.5537   -3.1016   56.6777 H       1  ZINC001289410668    0.0500
     30 H30       -11.6740   -1.7727   57.0613 H       1  ZINC001289410668    0.0500
     31 H31       -11.6851   -2.5058   55.4394 H       1  ZINC001289410668    0.0500
     32 H32        -9.3821   -0.9163   56.6587 H       1  ZINC001289410668    0.0600
     33 H33        -9.3931   -1.6495   55.0367 H       1  ZINC001289410668    0.0600
     34 H34       -11.6557    0.1880   55.7922 H       1  ZINC001289410668    0.0600
     35 H35       -10.0772    0.9085   55.3950 H       1  ZINC001289410668    0.0600
     36 H36       -10.7607   -1.1894   53.4893 H       1  ZINC001289410668    0.0600
     37 H37       -12.0540    0.0307   53.5720 H       1  ZINC001289410668    0.0600
     38 H38       -10.5470    0.8876   51.9458 H       1  ZINC001289410668    0.0700
     39 H39       -10.1430    1.7830   53.4301 H       1  ZINC001289410668    0.0700
     40 H40        -8.2759    0.2553   53.8834 H       1  ZINC001289410668    0.1000
     41 H41        -8.7110   -0.7347   52.4695 H       1  ZINC001289410668    0.1000
     42 H42        -6.8184    1.9937   53.5018 H       1  ZINC001289410668    0.4000
     43 H43        -4.3743    1.8837   52.4726 H       1  ZINC001289410668    0.0800
     44 H44        -4.6536    1.6036   50.7265 H       1  ZINC001289410668    0.0800
     45 H45        -1.0427    2.2189   50.2896 H       1  ZINC001289410668    0.1200
     46 H46        -2.5716    1.3855   50.6588 H       1  ZINC001289410668    0.1200
     47 H47        -3.9084    3.5377   48.2559 H       1  ZINC001289410668    0.1700
     48 H48        -3.7371    2.6066   45.8073 H       1  ZINC001289410668    0.1700
     49 H49        -0.7353    0.0181   49.3468 H       1  ZINC001289410668    0.0700
     50 H50        -0.9341   -1.0431   46.4918 H       1  ZINC001289410668    0.0700
     51 H51        -0.2002   -1.8996   47.8688 H       1  ZINC001289410668    0.0600
     52 H52        -1.9466   -1.5563   47.8628 H       1  ZINC001289410668    0.0500
     53 H53         0.7045    0.8211   46.7779 H       1  ZINC001289410668    0.0700
     54 H54         0.8593    1.6362   48.3528 H       1  ZINC001289410668    0.0600
     55 H55         1.4385   -0.0352   48.1549 H       1  ZINC001289410668    0.0600
     56 H56        -3.9767    5.2136   52.4666 H       1  ZINC001289410668    0.0800
     57 H57        -4.8052    5.3941   50.8951 H       1  ZINC001289410668    0.0800
     58 H58        -7.1686    5.2936   50.9619 H       1  ZINC001289410668    0.0600
     59 H59        -7.9782    4.8462   52.4826 H       1  ZINC001289410668    0.0600
     60 H60        -6.8157    6.1939   52.4564 H       1  ZINC001289410668    0.0700
@<TRIPOS>BOND
     1     1     2    1
     2     1    29    1
     3     1    30    1
     4     1    31    1
     5     2     3    1
     6     2    32    1
     7     2    33    1
     8     3     4    1
     9     3    34    1
    10     3    35    1
    11     4     5    1
    12     4    36    1
    13     4    37    1
    14     5     6    1
    15     5    38    1
    16     5    39    1
    17     6     7    1
    18     6    40    1
    19     6    41    1
    20     7     8    2
    21     7     9   am
    22     9    10    1
    23     9    42    1
    24    10    11    1
    25    10    26    1
    26    10    12    1
    27    12    13    1
    28    12    43    1
    29    12    44    1
    30    13    14   am
    31    13    25    1
    32    14    15    2
    33    14    16    1
    34    16    17    1
    35    16    45    1
    36    16    46    1
    37    17    21    1
    38    17    18    1
    39    18    19    2
    40    18    47    1
    41    19    20    1
    42    19    48    1
    43    20    21    2
    44    21    22    1
    45    22    23    1
    46    22    24    1
    47    22    49    1
    48    23    50    1
    49    23    51    1
    50    23    52    1
    51    24    53    1
    52    24    54    1
    53    24    55    1
    54    25    26    1
    55    25    56    1
    56    25    57    1
    57    26    27    1
    58    26    28    1
    59    28    58    1
    60    28    59    1
    61    28    60    1
@<TRIPOS>SUBSTRUCTURE
     1 ZINC001289410668        1 TEMP              0 ****  ****    0 ROOT


##########                                Name:    ZINC001000186632
##########                DOCK_Rotatable_Bonds:                   7
##########                         Heavy_Atoms:                  23
##########                    Molecular_Weight:             342.379
##########                DOCK_Rotatable_Bonds:                   7
##########                       Formal_Charge:          -0.0100001
##########                     HBond_Acceptors:                  11
##########                        HBond_Donors:                   2
##########                         Heavy_Atoms:                  23
##########                          Grid_Score:          -30.965839
##########                     Grid_vdw_energy:          -30.832674
##########                      Grid_es_energy:           -0.133166
##########           Internal_energy_repulsive:            4.384593

@<TRIPOS>MOLECULE
ZINC001000186632
 41 43 1 0 0
SMALL
USER_CHARGES


@<TRIPOS>ATOM
      1 O1         -7.5386    1.4173   59.8066 O.2     1  ZINC001000186632   -0.5200
      2 C2         -7.9671    0.5365   60.5218 C.2     1  ZINC001000186632    0.5300
      3 C3         -8.6280    0.8836   61.8310 C.3     1  ZINC001000186632   -0.0500
      4 C4        -10.0864    1.1802   61.5943 C.2     1  ZINC001000186632    0.2400
      5 N5        -11.0612    0.3135   61.6790 N.2     1  ZINC001000186632   -0.3000
      6 N6        -12.2468    1.0063   61.3842 N.pl3   1  ZINC001000186632   -0.4800
      7 C7        -11.8901    2.2784   61.1359 C.2     1  ZINC001000186632    0.2700
      8 N8        -10.5920    2.3697   61.2706 N.2     1  ZINC001000186632   -0.5400
      9 N9         -7.8572   -0.7523   60.1433 N.am    1  ZINC001000186632   -0.7100
     10 C10        -7.2147   -1.0897   58.8707 C.3     1  ZINC001000186632    0.1100
     11 C11        -7.0611   -2.6034   58.6360 C.3     1  ZINC001000186632    0.1000
     12 N12        -8.3802   -2.5335   57.9779 N.am    1  ZINC001000186632   -0.6500
     13 C13        -9.3692   -3.4199   57.7479 C.2     1  ZINC001000186632    0.5100
     14 O14        -9.2546   -4.5674   58.1237 O.2     1  ZINC001000186632   -0.5100
     15 C15       -10.6173   -2.9852   57.0239 C.3     1  ZINC001000186632    0.1500
     16 N16       -11.7575   -3.0364   57.9425 N.am    1  ZINC001000186632   -0.9800
     17 C17       -11.7806   -2.5485   59.3296 C.3     1  ZINC001000186632    0.0800
     18 C18       -13.2056   -2.1041   59.7112 C.3     1  ZINC001000186632   -0.1300
     19 C19       -14.1194   -3.2459   59.1798 C.3     1  ZINC001000186632   -0.6000
     20 S20       -13.2724   -3.6527   57.6046 S.o2    1  ZINC001000186632    2.5700
     21 O21       -13.7702   -2.8630   56.5332 O.2     1  ZINC001000186632   -0.9400
     22 O22       -13.0750   -5.0537   57.4729 O.2     1  ZINC001000186632   -0.9600
     23 C23        -8.1815   -1.1034   57.6727 C.3     1  ZINC001000186632    0.0900
     24 H24        -8.5352    0.0431   62.5189 H       1  ZINC001000186632    0.1300
     25 H25        -8.1440    1.7603   62.2612 H       1  ZINC001000186632    0.1200
     26 H26       -13.1446    0.6396   61.3634 H       1  ZINC001000186632    0.4400
     27 H27       -12.5590    3.0851   60.8744 H       1  ZINC001000186632    0.2200
     28 H28        -8.2035   -1.4565   60.7135 H       1  ZINC001000186632    0.4100
     29 H29        -6.3021   -0.5213   58.6915 H       1  ZINC001000186632    0.1200
     30 H30        -6.2461   -2.8627   57.9602 H       1  ZINC001000186632    0.1000
     31 H31        -7.0584   -3.1922   59.5532 H       1  ZINC001000186632    0.0900
     32 H32       -10.4897   -1.9659   56.6597 H       1  ZINC001000186632    0.1100
     33 H33       -10.7995   -3.6521   56.1813 H       1  ZINC001000186632    0.1100
     34 H34       -11.4600   -3.3470   59.9988 H       1  ZINC001000186632    0.0800
     35 H35       -11.1002   -1.7025   59.4264 H       1  ZINC001000186632    0.0900
     36 H36       -13.2995   -2.0130   60.7932 H       1  ZINC001000186632    0.1100
     37 H37       -13.4534   -1.1603   59.2253 H       1  ZINC001000186632    0.1000
     38 H38       -14.1218   -4.0972   59.8605 H       1  ZINC001000186632    0.1400
     39 H39       -15.1324   -2.8869   58.9980 H       1  ZINC001000186632    0.1400
     40 H40        -9.0734   -0.4946   57.8210 H       1  ZINC001000186632    0.0900
     41 H41        -7.6957   -0.9221   56.7139 H       1  ZINC001000186632    0.1100
@<TRIPOS>BOND
     1     1     2    2
     2     2     3    1
     3     2     9   am
     4     3     4    1
     5     3    24    1
     6     3    25    1
     7     4     8    1
     8     4     5    2
     9     5     6    1
    10     6     7    1
    11     6    26    1
    12     7     8    2
    13     7    27    1
    14     9    10    1
    15     9    28    1
    16    10    23    1
    17    10    11    1
    18    10    29    1
    19    11    12    1
    20    11    30    1
    21    11    31    1
    22    12    13   am
    23    12    23    1
    24    13    14    2
    25    13    15    1
    26    15    16    1
    27    15    32    1
    28    15    33    1
    29    16    20   am
    30    16    17    1
    31    17    18    1
    32    17    34    1
    33    17    35    1
    34    18    19    1
    35    18    36    1
    36    18    37    1
    37    19    20    1
    38    19    38    1
    39    19    39    1
    40    20    21    2
    41    20    22    2
    42    23    40    1
    43    23    41    1
@<TRIPOS>SUBSTRUCTURE
     1 ZINC001000186632        1 TEMP              0 ****  ****    0 ROOT


##########                                Name:    ZINC001371344729
##########                DOCK_Rotatable_Bonds:                   9
##########                         Heavy_Atoms:                  24
##########                    Molecular_Weight:             332.399
##########                DOCK_Rotatable_Bonds:                   9
##########                       Formal_Charge:          0.00999983
##########                     HBond_Acceptors:                   6
##########                        HBond_Donors:                   1
##########                         Heavy_Atoms:                  24
##########                          Grid_Score:          -30.942478
##########                     Grid_vdw_energy:          -28.815502
##########                      Grid_es_energy:           -2.126976
##########           Internal_energy_repulsive:           22.441139

@<TRIPOS>MOLECULE
ZINC001371344729
 48 49 1 0 0
SMALL
USER_CHARGES


@<TRIPOS>ATOM
      1 C1         -1.1462    2.3925   50.6078 C.3     1  ZINC001371344729   -0.1800
      2 C2         -2.4485    1.6244   50.3739 C.3     1  ZINC001371344729    0.1000
      3 N3         -3.1441    2.1846   49.2126 N.am    1  ZINC001371344729   -0.6100
      4 C4         -2.8344    1.7590   47.9717 C.2     1  ZINC001371344729    0.5100
      5 O5         -3.4112    2.2216   47.0104 O.2     1  ZINC001371344729   -0.5200
      6 C6         -1.7714    0.7083   47.7789 C.3     1  ZINC001371344729   -0.0600
      7 C7         -1.3072    0.7206   46.3452 C.2     1  ZINC001371344729   -0.0100
      8 C8         -0.2354    1.3808   45.8710 C.2     1  ZINC001371344729   -0.1600
      9 C9          0.7162    2.2370   46.6663 C.3     1  ZINC001371344729   -0.0800
     10 C10        -0.1766    1.1223   44.4823 C.2     1  ZINC001371344729   -0.2100
     11 C11        -1.2103    0.3119   44.1926 C.2     1  ZINC001371344729   -0.0300
     12 O12        -1.8939    0.0749   45.3242 O.3     1  ZINC001371344729   -0.1700
     13 C13        -4.1762    3.2072   49.3999 C.3     1  ZINC001371344729    0.1200
     14 H14        -4.4553    3.6233   48.4319 H       1  ZINC001371344729    0.1100
     15 C15        -3.6330    4.3216   50.2966 C.3     1  ZINC001371344729   -0.1600
     16 C16        -5.4053    2.5768   50.0576 C.3     1  ZINC001371344729    0.1100
     17 N17        -6.5826    3.4061   49.7884 N.am    1  ZINC001371344729   -0.7200
     18 C18        -7.5602    3.5083   50.7106 C.2     1  ZINC001371344729    0.5900
     19 O19        -7.4643    2.9130   51.7667 O.2     1  ZINC001371344729   -0.5300
     20 C20        -8.7453    4.3411   50.4389 C.2     1  ZINC001371344729   -0.2300
     21 C21        -9.2405    5.3485   51.2141 C.2     1  ZINC001371344729    0.0200
     22 O22       -10.3233    5.8505   50.6124 O.3     1  ZINC001371344729   -0.1700
     23 C23       -10.5743    5.2056   49.4623 C.2     1  ZINC001371344729   -0.0100
     24 C24       -11.7176    5.5016   48.5264 C.3     1  ZINC001371344729   -0.0800
     25 C25        -9.6447    4.2556   49.2790 C.2     1  ZINC001371344729   -0.1600
     26 H26        -1.3719    3.4429   50.7914 H       1  ZINC001371344729    0.0700
     27 H27        -0.6287    1.9757   51.4719 H       1  ZINC001371344729    0.0700
     28 H28        -0.5101    2.3062   49.7268 H       1  ZINC001371344729    0.0600
     29 H29        -3.0846    1.7108   51.2548 H       1  ZINC001371344729    0.0900
     30 H30        -2.2228    0.5739   50.1903 H       1  ZINC001371344729    0.0800
     31 H31        -2.1819   -0.2724   48.0194 H       1  ZINC001371344729    0.1100
     32 H32        -0.9278    0.9201   48.4358 H       1  ZINC001371344729    0.1200
     33 H33         1.5334    1.6205   47.0407 H       1  ZINC001371344729    0.0700
     34 H34         1.1178    3.0235   46.0274 H       1  ZINC001371344729    0.0700
     35 H35         0.1857    2.6862   47.5060 H       1  ZINC001371344729    0.0600
     36 H36         0.5590    1.5006   43.7878 H       1  ZINC001371344729    0.1500
     37 H37        -1.4529   -0.0776   43.2149 H       1  ZINC001371344729    0.2000
     38 H38        -2.7573    4.7707   49.8280 H       1  ZINC001371344729    0.0700
     39 H39        -4.4009    5.0826   50.4360 H       1  ZINC001371344729    0.0700
     40 H40        -3.3539    3.9054   51.2646 H       1  ZINC001371344729    0.0700
     41 H41        -5.5635    1.5782   49.6501 H       1  ZINC001371344729    0.0800
     42 H42        -5.2469    2.5091   51.1339 H       1  ZINC001371344729    0.0800
     43 H43        -6.6585    3.8818   48.9464 H       1  ZINC001371344729    0.4000
     44 H44        -8.8267    5.6847   52.1534 H       1  ZINC001371344729    0.2100
     45 H45       -12.5819    4.8994   48.8067 H       1  ZINC001371344729    0.0800
     46 H46       -11.9752    6.5588   48.5902 H       1  ZINC001371344729    0.0800
     47 H47       -11.4228    5.2606   47.5051 H       1  ZINC001371344729    0.0900
     48 H48        -9.5718    3.5686   48.4489 H       1  ZINC001371344729    0.1600
@<TRIPOS>BOND
     1     1     2    1
     2     1    26    1
     3     1    27    1
     4     1    28    1
     5     2     3    1
     6     2    29    1
     7     2    30    1
     8     3     4   am
     9     3    13    1
    10     4     5    2
    11     4     6    1
    12     6     7    1
    13     6    31    1
    14     6    32    1
    15     7    12    1
    16     7     8    2
    17     8     9    1
    18     8    10    1
    19     9    33    1
    20     9    34    1
    21     9    35    1
    22    10    11    2
    23    10    36    1
    24    11    12    1
    25    11    37    1
    26    13    14    1
    27    13    15    1
    28    13    16    1
    29    15    38    1
    30    15    39    1
    31    15    40    1
    32    16    17    1
    33    16    41    1
    34    16    42    1
    35    17    18   am
    36    17    43    1
    37    18    19    2
    38    18    20    1
    39    20    25    1
    40    20    21    2
    41    21    22    1
    42    21    44    1
    43    22    23    1
    44    23    24    1
    45    23    25    2
    46    24    45    1
    47    24    46    1
    48    24    47    1
    49    25    48    1
@<TRIPOS>SUBSTRUCTURE
     1 ZINC001371344729        1 TEMP              0 ****  ****    0 ROOT


##########                                Name:    ZINC000190927708
##########                DOCK_Rotatable_Bonds:                  10
##########                         Heavy_Atoms:                  26
##########                    Molecular_Weight:             358.437
##########                DOCK_Rotatable_Bonds:                  10
##########                       Formal_Charge:           0.0499998
##########                     HBond_Acceptors:                   6
##########                        HBond_Donors:                   1
##########                         Heavy_Atoms:                  26
##########                          Grid_Score:          -30.940985
##########                     Grid_vdw_energy:          -28.883036
##########                      Grid_es_energy:           -2.057949
##########           Internal_energy_repulsive:           21.055874

@<TRIPOS>MOLECULE
ZINC000190927708
 52 53 1 0 0
SMALL
USER_CHARGES


@<TRIPOS>ATOM
      1 C1        -10.2194   -0.5509   54.6353 C.3     1  ZINC000190927708   -0.1500
      2 C2         -9.0704   -0.0875   53.7375 C.3     1  ZINC000190927708   -0.1500
      3 C3         -9.6383    0.6361   52.5149 C.3     1  ZINC000190927708    0.1000
      4 N4         -8.8003    1.7960   52.2011 N.am    1  ZINC000190927708   -0.5900
      5 C5         -7.5781    1.6180   51.6612 C.2     1  ZINC000190927708    0.5300
      6 O6         -7.1717    0.4977   51.4368 O.2     1  ZINC000190927708   -0.5300
      7 C7         -6.7168    2.8112   51.3367 C.3     1  ZINC000190927708   -0.0800
      8 C8         -5.3629    2.3415   50.8703 C.2     1  ZINC000190927708   -0.1700
      9 C9         -5.0349    2.4238   49.5572 C.2     1  ZINC000190927708    0.0000
     10 C10        -3.7116    1.9595   49.1365 C.ar    1  ZINC000190927708   -0.1300
     11 C11        -3.3159    2.0200   47.7966 C.ar    1  ZINC000190927708   -0.0500
     12 C12        -2.0736    1.5794   47.4368 C.ar    1  ZINC000190927708   -0.1500
     13 C13        -1.2008    1.0722   48.3892 C.ar    1  ZINC000190927708   -0.0600
     14 C14        -1.5697    1.0026   49.7155 C.ar    1  ZINC000190927708   -0.1600
     15 C15        -2.8290    1.4456   50.1056 C.ar    1  ZINC000190927708    0.1900
     16 N16        -3.2241    1.3882   51.4252 N.am    1  ZINC000190927708   -0.6300
     17 C17        -4.4391    1.8229   51.8028 C.2     1  ZINC000190927708    0.5500
     18 O18        -4.7549    1.7570   52.9782 O.2     1  ZINC000190927708   -0.5300
     19 C19        -9.2905    3.1493   52.4739 C.3     1  ZINC000190927708    0.1500
     20 H20        -8.4519    3.8457   52.4771 H       1  ZINC000190927708    0.1400
     21 C21        -9.9808    3.1761   53.8390 C.3     1  ZINC000190927708   -0.1300
     22 C22       -10.0414    4.6162   54.3518 C.3     1  ZINC000190927708   -0.1500
     23 C23       -10.2739    3.5522   51.4055 C.2     1  ZINC000190927708    0.4500
     24 O24       -11.4509    3.3197   51.5491 O.2     1  ZINC000190927708   -0.5000
     25 O25        -9.8425    4.1695   50.2945 O.3     1  ZINC000190927708   -0.3500
     26 C26       -10.8284    4.4336   49.2618 C.3     1  ZINC000190927708    0.0600
     27 C27       -10.1569    5.1449   48.0854 C.3     1  ZINC000190927708   -0.1500
     28 H28       -10.8646   -1.2303   54.0781 H       1  ZINC000190927708    0.0600
     29 H29        -9.8148   -1.0664   55.5062 H       1  ZINC000190927708    0.0600
     30 H30       -10.7975    0.3138   54.9610 H       1  ZINC000190927708    0.0600
     31 H31        -8.4253    0.5919   54.2946 H       1  ZINC000190927708    0.0800
     32 H32        -8.4923   -0.9523   53.4118 H       1  ZINC000190927708    0.0700
     33 H33        -9.6510   -0.0442   51.6634 H       1  ZINC000190927708    0.0900
     34 H34       -10.6539    0.9690   52.7291 H       1  ZINC000190927708    0.0900
     35 H35        -7.1896    3.3970   50.5484 H       1  ZINC000190927708    0.1100
     36 H36        -6.6003    3.4283   52.2277 H       1  ZINC000190927708    0.1200
     37 H37        -5.7344    2.8228   48.8375 H       1  ZINC000190927708    0.1400
     38 H38        -3.9894    2.4131   47.0495 H       1  ZINC000190927708    0.1400
     39 H39        -1.7683    1.6259   46.4018 H       1  ZINC000190927708    0.1300
     40 H40        -0.2223    0.7280   48.0879 H       1  ZINC000190927708    0.1300
     41 H41        -0.8833    0.6061   50.4490 H       1  ZINC000190927708    0.1300
     42 H42        -2.6151    1.0330   52.0914 H       1  ZINC000190927708    0.4200
     43 H43       -10.9925    2.7819   53.7423 H       1  ZINC000190927708    0.0900
     44 H44        -9.4179    2.5631   54.5429 H       1  ZINC000190927708    0.0800
     45 H45       -10.5332    4.6353   55.3244 H       1  ZINC000190927708    0.0600
     46 H46        -9.0298    5.0103   54.4485 H       1  ZINC000190927708    0.0600
     47 H47       -10.6044    5.2291   53.6479 H       1  ZINC000190927708    0.0600
     48 H48       -11.2576    3.4917   48.9199 H       1  ZINC000190927708    0.0700
     49 H49       -11.6179    5.0668   49.6667 H       1  ZINC000190927708    0.0700
     50 H50        -9.7278    6.0867   48.4272 H       1  ZINC000190927708    0.0700
     51 H51        -9.3675    4.5116   47.6806 H       1  ZINC000190927708    0.0700
     52 H52       -10.8972    5.3431   47.3102 H       1  ZINC000190927708    0.0800
@<TRIPOS>BOND
     1     1     2    1
     2     1    28    1
     3     1    29    1
     4     1    30    1
     5     2     3    1
     6     2    31    1
     7     2    32    1
     8     3     4    1
     9     3    33    1
    10     3    34    1
    11     4     5   am
    12     4    19    1
    13     5     6    2
    14     5     7    1
    15     7     8    1
    16     7    35    1
    17     7    36    1
    18     8    17    1
    19     8     9    2
    20     9    10    1
    21     9    37    1
    22    10    15   ar
    23    10    11   ar
    24    11    12   ar
    25    11    38    1
    26    12    13   ar
    27    12    39    1
    28    13    14   ar
    29    13    40    1
    30    14    15   ar
    31    14    41    1
    32    15    16    1
    33    16    17   am
    34    16    42    1
    35    17    18    2
    36    19    20    1
    37    19    21    1
    38    19    23    1
    39    21    22    1
    40    21    43    1
    41    21    44    1
    42    22    45    1
    43    22    46    1
    44    22    47    1
    45    23    24    2
    46    23    25    1
    47    25    26    1
    48    26    27    1
    49    26    48    1
    50    26    49    1
    51    27    50    1
    52    27    51    1
    53    27    52    1
@<TRIPOS>SUBSTRUCTURE
     1 ZINC000190927708        1 TEMP              0 ****  ****    0 ROOT


##########                                Name:    ZINC001060733018
##########                DOCK_Rotatable_Bonds:                   7
##########                         Heavy_Atoms:                  24
##########                    Molecular_Weight:             342.429
##########                DOCK_Rotatable_Bonds:                   7
##########                       Formal_Charge:           0.0200001
##########                     HBond_Acceptors:                   6
##########                        HBond_Donors:                   2
##########                         Heavy_Atoms:                  24
##########                          Grid_Score:          -30.907740
##########                     Grid_vdw_energy:          -30.220524
##########                      Grid_es_energy:           -0.687215
##########           Internal_energy_repulsive:            7.063359

@<TRIPOS>MOLECULE
ZINC001060733018
 52 54 1 0 0
SMALL
USER_CHARGES


@<TRIPOS>ATOM
      1 O1         -9.0825   -0.3970   53.7694 O.2     1  ZINC001060733018   -0.5000
      2 C2         -9.8271    0.3464   53.1665 C.2     1  ZINC001060733018    0.4700
      3 N3         -9.4210    1.5903   52.8431 N.am    1  ZINC001060733018   -0.7100
      4 C4         -8.0816    2.0456   53.2236 C.3     1  ZINC001060733018    0.1200
      5 C5         -7.0952    1.7249   52.0990 C.3     1  ZINC001060733018   -0.1000
      6 H6         -7.1333    0.6587   51.8754 H       1  ZINC001060733018    0.0800
      7 C7         -7.4710    2.5220   50.8482 C.3     1  ZINC001060733018   -0.1100
      8 C8         -6.4846    2.2011   49.7235 C.3     1  ZINC001060733018   -0.1300
      9 C9         -5.0690    2.5798   50.1633 C.3     1  ZINC001060733018    0.1400
     10 H10        -5.0310    3.6460   50.3869 H       1  ZINC001060733018    0.0900
     11 N11        -4.1245    2.2727   49.0864 N.am    1  ZINC001060733018   -0.7300
     12 C12        -3.0050    3.0091   48.9414 C.2     1  ZINC001060733018    0.5200
     13 O13        -2.7788    3.9251   49.7034 O.2     1  ZINC001060733018   -0.5400
     14 C14        -2.0344    2.6942   47.8324 C.3     1  ZINC001060733018   -0.1000
     15 H15        -1.5538    3.6137   47.4983 H       1  ZINC001060733018    0.1000
     16 C16        -2.7860    2.0574   46.6625 C.3     1  ZINC001060733018   -0.1100
     17 C17        -1.8212    1.8023   45.5036 C.3     1  ZINC001060733018   -0.1200
     18 C18        -0.7503    0.7989   45.9426 C.3     1  ZINC001060733018   -0.0800
     19 C19        -0.0430    1.3420   47.1877 C.3     1  ZINC001060733018   -0.1300
     20 C20         1.2126    2.1883   46.9786 C.3     1  ZINC001060733018   -0.1700
     21 C21         1.3300    0.7671   47.5337 C.3     1  ZINC001060733018   -0.1700
     22 C22        -0.9705    1.7195   48.3464 C.3     1  ZINC001060733018   -0.0600
     23 C23        -4.6931    1.7829   51.4141 C.3     1  ZINC001060733018   -0.1200
     24 C24        -5.6796    2.1036   52.5388 C.3     1  ZINC001060733018   -0.1100
     25 C25       -11.2043   -0.1225   52.7734 C.3     1  ZINC001060733018    0.2600
     26 F26       -11.6653   -1.0528   53.7111 F       1  ZINC001060733018   -0.1700
     27 F27       -12.0759    0.9711   52.7342 F       1  ZINC001060733018   -0.1900
     28 H28       -10.0156    2.1840   52.3585 H       1  ZINC001060733018    0.4100
     29 H29        -8.0990    3.1218   53.3958 H       1  ZINC001060733018    0.0800
     30 H30        -7.7704    1.5367   54.1360 H       1  ZINC001060733018    0.0800
     31 H31        -8.4796    2.2522   50.5349 H       1  ZINC001060733018    0.0700
     32 H32        -7.4331    3.5881   51.0718 H       1  ZINC001060733018    0.0700
     33 H33        -6.7523    2.7690   48.8325 H       1  ZINC001060733018    0.0700
     34 H34        -6.5227    1.1351   49.5000 H       1  ZINC001060733018    0.0600
     35 H35        -4.3048    1.5393   48.4776 H       1  ZINC001060733018    0.4000
     36 H36        -3.2235    1.1123   46.9844 H       1  ZINC001060733018    0.0700
     37 H37        -3.5780    2.7294   46.3319 H       1  ZINC001060733018    0.0700
     38 H38        -2.3720    1.3977   44.6544 H       1  ZINC001060733018    0.0700
     39 H39        -1.3447    2.7391   45.2145 H       1  ZINC001060733018    0.0700
     40 H40        -1.2195   -0.1566   46.1770 H       1  ZINC001060733018    0.0700
     41 H41        -0.0251    0.6643   45.1402 H       1  ZINC001060733018    0.0700
     42 H42         1.5409    2.3569   45.9530 H       1  ZINC001060733018    0.0900
     43 H43         1.3837    3.0142   47.6691 H       1  ZINC001060733018    0.0900
     44 H44         1.5785    0.6579   48.5893 H       1  ZINC001060733018    0.0900
     45 H45         1.7355    0.0004   46.8734 H       1  ZINC001060733018    0.0900
     46 H46        -0.3912    2.1952   49.1378 H       1  ZINC001060733018    0.0700
     47 H47        -1.4539    0.8227   48.7342 H       1  ZINC001060733018    0.0800
     48 H48        -3.6846    2.0526   51.7273 H       1  ZINC001060733018    0.0700
     49 H49        -4.7311    0.7166   51.1905 H       1  ZINC001060733018    0.0700
     50 H50        -5.6415    3.1697   52.7623 H       1  ZINC001060733018    0.0700
     51 H51        -5.4118    1.5358   53.4298 H       1  ZINC001060733018    0.0700
     52 H52       -11.1621   -0.5890   51.7892 H       1  ZINC001060733018    0.1400
@<TRIPOS>BOND
     1     1     2    2
     2     2     3   am
     3     2    25    1
     4     3     4    1
     5     3    28    1
     6     4     5    1
     7     4    29    1
     8     4    30    1
     9     5     6    1
    10     5    24    1
    11     5     7    1
    12     7     8    1
    13     7    31    1
    14     7    32    1
    15     8     9    1
    16     8    33    1
    17     8    34    1
    18     9    10    1
    19     9    11    1
    20     9    23    1
    21    11    12   am
    22    11    35    1
    23    12    13    2
    24    12    14    1
    25    14    15    1
    26    14    22    1
    27    14    16    1
    28    16    17    1
    29    16    36    1
    30    16    37    1
    31    17    18    1
    32    17    38    1
    33    17    39    1
    34    18    19    1
    35    18    40    1
    36    18    41    1
    37    19    21    1
    38    19    20    1
    39    19    22    1
    40    20    21    1
    41    20    42    1
    42    20    43    1
    43    21    44    1
    44    21    45    1
    45    22    46    1
    46    22    47    1
    47    23    24    1
    48    23    48    1
    49    23    49    1
    50    24    50    1
    51    24    51    1
    52    25    26    1
    53    25    27    1
    54    25    52    1
@<TRIPOS>SUBSTRUCTURE
     1 ZINC001060733018        1 TEMP              0 ****  ****    0 ROOT


##########                                Name:    ZINC001181473921
##########                DOCK_Rotatable_Bonds:                   9
##########                         Heavy_Atoms:                  24
##########                    Molecular_Weight:             357.431
##########                DOCK_Rotatable_Bonds:                   9
##########                       Formal_Charge:        -5.96046e-08
##########                     HBond_Acceptors:                   9
##########                        HBond_Donors:                   4
##########                         Heavy_Atoms:                  24
##########                          Grid_Score:          -30.905729
##########                     Grid_vdw_energy:          -27.184549
##########                      Grid_es_energy:           -3.721179
##########           Internal_energy_repulsive:           11.616094

@<TRIPOS>MOLECULE
ZINC001181473921
 47 48 1 0 0
SMALL
USER_CHARGES


@<TRIPOS>ATOM
      1 C1         -1.7545    2.2340   51.2069 C.3     1  ZINC001181473921   -0.1300
      2 C2         -1.7460    1.7561   49.7777 C.2     1  ZINC001181473921    0.1900
      3 C3         -0.8034    0.8774   49.3747 C.2     1  ZINC001181473921   -0.2400
      4 C4         -0.7909    0.4266   48.0396 C.2     1  ZINC001181473921    0.2500
      5 O5          0.1479   -0.4551   47.6202 O.3     1  ZINC001181473921   -0.4600
      6 C6         -1.7519    0.8981   47.1646 C.2     1  ZINC001181473921   -0.3700
      7 C7         -2.7085    1.8082   47.6291 C.2     1  ZINC001181473921    0.5300
      8 O8         -3.5642    2.2337   46.8688 O.2     1  ZINC001181473921   -0.5500
      9 N9         -2.6905    2.2111   48.9132 N.am    1  ZINC001181473921   -0.5000
     10 C10        -3.6991    3.1638   49.3837 C.3     1  ZINC001181473921    0.1000
     11 C11        -4.9054    2.3997   49.9329 C.3     1  ZINC001181473921   -0.1600
     12 C12        -5.4676    3.1358   51.1217 C.2     1  ZINC001181473921    0.5200
     13 O13        -5.7866    4.3013   51.0179 O.2     1  ZINC001181473921   -0.5300
     14 N14        -5.6158    2.4991   52.3003 N.am    1  ZINC001181473921   -0.7200
     15 C15        -6.1607    3.2152   53.4564 C.3     1  ZINC001181473921    0.1400
     16 H16        -6.9042    3.9470   53.1403 H       1  ZINC001181473921    0.1000
     17 C17        -5.0280    3.8969   54.2635 C.3     1  ZINC001181473921   -0.1300
     18 C18        -5.6157    4.0543   55.6811 C.3     1  ZINC001181473921   -0.1500
     19 C19        -6.7185    2.9903   55.8205 C.3     1  ZINC001181473921   -0.0800
     20 H20        -7.6791    3.4704   56.0075 H       1  ZINC001181473921    0.0900
     21 C21        -6.3806    2.0319   56.9643 C.3     1  ZINC001181473921   -0.6200
     22 S22        -7.8066    0.9614   57.2975 S.o2    1  ZINC001181473921    2.6100
     23 N23        -7.3462    0.0548   58.6045 N.am    1  ZINC001181473921   -1.2500
     24 O24        -8.9053    1.7277   57.7719 O.2     1  ZINC001181473921   -0.9600
     25 O25        -7.9721    0.0121   56.2532 O.2     1  ZINC001181473921   -0.9600
     26 C26        -6.7671    2.2238   54.4803 C.3     1  ZINC001181473921   -0.1200
     27 H27        -2.7316    2.0398   51.6491 H       1  ZINC001181473921    0.0900
     28 H28        -0.9880    1.7035   51.7719 H       1  ZINC001181473921    0.1000
     29 H29        -1.5498    3.3042   51.2335 H       1  ZINC001181473921    0.0900
     30 H30        -0.0610    0.5212   50.0736 H       1  ZINC001181473921    0.1500
     31 H31         0.9144   -0.5218   48.2060 H       1  ZINC001181473921    0.4100
     32 H32        -1.7641    0.5686   46.1361 H       1  ZINC001181473921    0.1500
     33 H33        -3.2728    3.7847   50.1716 H       1  ZINC001181473921    0.1000
     34 H34        -4.0164    3.7962   48.5544 H       1  ZINC001181473921    0.1100
     35 H35        -5.6693    2.3219   49.1593 H       1  ZINC001181473921    0.1100
     36 H36        -4.5944    1.4006   50.2382 H       1  ZINC001181473921    0.1000
     37 H37        -5.3618    1.5666   52.3831 H       1  ZINC001181473921    0.4000
     38 H38        -4.1413    3.2634   54.2862 H       1  ZINC001181473921    0.0700
     39 H39        -4.7905    4.8722   53.8386 H       1  ZINC001181473921    0.0800
     40 H40        -4.8393    3.8874   56.4278 H       1  ZINC001181473921    0.0900
     41 H41        -6.0410    5.0508   55.8005 H       1  ZINC001181473921    0.0800
     42 H42        -5.5239    1.4191   56.6837 H       1  ZINC001181473921    0.1400
     43 H43        -6.1396    2.6053   57.8595 H       1  ZINC001181473921    0.1400
     44 H44        -6.5666   -0.5194   58.5461 H       1  ZINC001181473921    0.4100
     45 H45        -7.8561    0.0979   59.4286 H       1  ZINC001181473921    0.4200
     46 H46        -7.7963    1.9788   54.2181 H       1  ZINC001181473921    0.0800
     47 H47        -6.1610    1.3195   54.5358 H       1  ZINC001181473921    0.0800
@<TRIPOS>BOND
     1     1     2    1
     2     1    27    1
     3     1    28    1
     4     1    29    1
     5     2     9    1
     6     2     3    2
     7     3     4    1
     8     3    30    1
     9     4     5    1
    10     4     6    2
    11     5    31    1
    12     6     7    1
    13     6    32    1
    14     7     8    2
    15     7     9   am
    16     9    10    1
    17    10    11    1
    18    10    33    1
    19    10    34    1
    20    11    12    1
    21    11    35    1
    22    11    36    1
    23    12    13    2
    24    12    14   am
    25    14    15    1
    26    14    37    1
    27    15    16    1
    28    15    26    1
    29    15    17    1
    30    17    18    1
    31    17    38    1
    32    17    39    1
    33    18    19    1
    34    18    40    1
    35    18    41    1
    36    19    20    1
    37    19    21    1
    38    19    26    1
    39    21    22    1
    40    21    42    1
    41    21    43    1
    42    22    23   am
    43    22    24    2
    44    22    25    2
    45    23    44    1
    46    23    45    1
    47    26    46    1
    48    26    47    1
@<TRIPOS>SUBSTRUCTURE
     1 ZINC001181473921        1 TEMP              0 ****  ****    0 ROOT


##########                                Name:    ZINC000077537368
##########                DOCK_Rotatable_Bonds:                   5
##########                         Heavy_Atoms:                  27
##########                    Molecular_Weight:             365.478
##########                DOCK_Rotatable_Bonds:                   5
##########                       Formal_Charge:          -0.0400007
##########                     HBond_Acceptors:                   6
##########                        HBond_Donors:                   0
##########                         Heavy_Atoms:                  27
##########                          Grid_Score:          -30.887251
##########                     Grid_vdw_energy:          -30.216803
##########                      Grid_es_energy:           -0.670448
##########           Internal_energy_repulsive:           11.464808

@<TRIPOS>MOLECULE
ZINC000077537368
 54 56 1 0 0
SMALL
USER_CHARGES


@<TRIPOS>ATOM
      1 C1         -6.5734    1.9297   50.1208 C.3     1  ZINC000077537368    0.0800
      2 N2         -7.4836    3.0185   50.4842 N.pl3   1  ZINC000077537368   -0.2600
      3 N3         -8.4520    3.4475   49.7575 N.2     1  ZINC000077537368   -0.2700
      4 C4         -9.0838    4.4274   50.3517 C.2     1  ZINC000077537368    0.0400
      5 C5        -10.2708    5.1782   49.8055 C.3     1  ZINC000077537368    0.0200
      6 C6        -10.2753    6.6021   50.3656 C.3     1  ZINC000077537368   -0.1400
      7 C7        -10.1825    5.2310   48.2790 C.3     1  ZINC000077537368   -0.1400
      8 C8        -11.5597    4.4641   50.2174 C.3     1  ZINC000077537368   -0.1400
      9 C9         -8.4632    4.6533   51.5824 C.2     1  ZINC000077537368   -0.2000
     10 C10        -7.4358    3.7285   51.6502 C.2     1  ZINC000077537368   -0.0400
     11 C11        -6.4779    3.5515   52.7534 C.2     1  ZINC000077537368    0.5900
     12 O12        -5.5461    4.3230   52.8793 O.2     1  ZINC000077537368   -0.5400
     13 N13        -6.6333    2.5345   53.6240 N.am    1  ZINC000077537368   -0.6000
     14 C14        -5.6910    2.3430   54.7370 C.3     1  ZINC000077537368    0.0800
     15 C15        -6.4928    2.2106   56.0361 C.3     1  ZINC000077537368    0.0400
     16 N16        -7.4966    1.1490   55.8823 N.3     1  ZINC000077537368   -0.5300
     17 C17        -8.1703    0.8728   57.1581 C.3     1  ZINC000077537368    0.0900
     18 C18        -8.2183   -0.6157   57.3889 C.ar    1  ZINC000077537368   -0.0500
     19 C19        -7.2556   -1.2219   58.1765 C.ar    1  ZINC000077537368   -0.1200
     20 C20        -7.2933   -2.5839   58.3916 C.ar    1  ZINC000077537368   -0.0700
     21 C21        -8.3063   -3.3511   57.8127 C.ar    1  ZINC000077537368   -0.0300
     22 C22        -8.3519   -4.7654   58.0321 C.1     1  ZINC000077537368    0.2500
     23 N23        -8.3881   -5.8875   58.2060 N.1     1  ZINC000077537368   -0.4100
     24 C24        -9.2748   -2.7328   57.0194 C.ar    1  ZINC000077537368   -0.0700
     25 C25        -9.2282   -1.3690   56.8169 C.ar    1  ZINC000077537368   -0.1000
     26 C26        -8.4702    1.4841   54.8346 C.3     1  ZINC000077537368    0.0400
     27 C27        -7.7529    1.5903   53.4898 C.3     1  ZINC000077537368    0.1200
     28 H28        -6.9308    0.9967   50.5564 H       1  ZINC000077537368    0.0800
     29 H29        -6.5371    1.8335   49.0356 H       1  ZINC000077537368    0.1000
     30 H30        -5.5752    2.1488   50.4997 H       1  ZINC000077537368    0.1100
     31 H31        -9.3571    7.1108   50.0722 H       1  ZINC000077537368    0.0600
     32 H32       -11.1339    7.1452   49.9705 H       1  ZINC000077537368    0.0600
     33 H33       -10.3383    6.5644   51.4531 H       1  ZINC000077537368    0.0600
     34 H34       -10.1792    4.2166   47.8800 H       1  ZINC000077537368    0.0600
     35 H35       -11.0410    5.7741   47.8839 H       1  ZINC000077537368    0.0600
     36 H36        -9.2642    5.7397   47.9856 H       1  ZINC000077537368    0.0600
     37 H37       -11.6227    4.4265   51.3050 H       1  ZINC000077537368    0.0600
     38 H38       -12.4182    5.0072   49.8223 H       1  ZINC000077537368    0.0600
     39 H39       -11.5565    3.4497   49.8184 H       1  ZINC000077537368    0.0600
     40 H40        -8.7306    5.3906   52.3250 H       1  ZINC000077537368    0.1700
     41 H41        -5.1089    1.4363   54.5720 H       1  ZINC000077537368    0.0800
     42 H42        -5.0242    3.2026   54.8043 H       1  ZINC000077537368    0.1200
     43 H43        -5.8193    1.9583   56.8551 H       1  ZINC000077537368    0.0900
     44 H44        -6.9924    3.1548   56.2531 H       1  ZINC000077537368    0.0400
     45 H45        -7.6204    1.3487   57.9700 H       1  ZINC000077537368    0.0900
     46 H46        -9.1855    1.2683   57.1261 H       1  ZINC000077537368    0.0500
     47 H47        -6.4726   -0.6273   58.6236 H       1  ZINC000077537368    0.1300
     48 H48        -6.5409   -3.0559   59.0059 H       1  ZINC000077537368    0.1300
     49 H49       -10.0610   -3.3202   56.5688 H       1  ZINC000077537368    0.1300
     50 H50        -9.9768   -0.8894   56.2039 H       1  ZINC000077537368    0.1400
     51 H51        -9.2306    0.7049   54.7821 H       1  ZINC000077537368    0.1000
     52 H52        -8.9421    2.4383   55.0683 H       1  ZINC000077537368    0.0400
     53 H53        -8.4483    1.9499   52.7313 H       1  ZINC000077537368    0.1000
     54 H54        -7.3669    0.6123   53.2024 H       1  ZINC000077537368    0.0800
@<TRIPOS>BOND
     1     1     2    1
     2     1    28    1
     3     1    29    1
     4     1    30    1
     5     2    10    1
     6     2     3    1
     7     3     4    2
     8     4     5    1
     9     4     9    1
    10     5     6    1
    11     5     7    1
    12     5     8    1
    13     6    31    1
    14     6    32    1
    15     6    33    1
    16     7    34    1
    17     7    35    1
    18     7    36    1
    19     8    37    1
    20     8    38    1
    21     8    39    1
    22     9    10    2
    23     9    40    1
    24    10    11    1
    25    11    12    2
    26    11    13   am
    27    13    27    1
    28    13    14    1
    29    14    15    1
    30    14    41    1
    31    14    42    1
    32    15    16    1
    33    15    43    1
    34    15    44    1
    35    16    17    1
    36    16    26    1
    37    17    18    1
    38    17    45    1
    39    17    46    1
    40    18    25   ar
    41    18    19   ar
    42    19    20   ar
    43    19    47    1
    44    20    21   ar
    45    20    48    1
    46    21    22    1
    47    21    24   ar
    48    22    23    3
    49    24    25   ar
    50    24    49    1
    51    25    50    1
    52    26    27    1
    53    26    51    1
    54    26    52    1
    55    27    53    1
    56    27    54    1
@<TRIPOS>SUBSTRUCTURE
     1 ZINC000077537368        1 TEMP              0 ****  ****    0 ROOT


##########                                Name:    ZINC000822206030
##########                DOCK_Rotatable_Bonds:                   7
##########                         Heavy_Atoms:                  29
##########                    Molecular_Weight:             391.448
##########                DOCK_Rotatable_Bonds:                   7
##########                       Formal_Charge:         -0.00999995
##########                     HBond_Acceptors:                   7
##########                        HBond_Donors:                   1
##########                         Heavy_Atoms:                  29
##########                          Grid_Score:          -30.863346
##########                     Grid_vdw_energy:          -28.673874
##########                      Grid_es_energy:           -2.189472
##########           Internal_energy_repulsive:           19.973639

@<TRIPOS>MOLECULE
ZINC000822206030
 51 55 1 0 0
SMALL
USER_CHARGES


@<TRIPOS>ATOM
      1 C1         -0.1905    2.4747   51.1753 C.3     1  ZINC000822206030   -0.1300
      2 C2         -0.5332    3.9328   51.0088 C.ar    1  ZINC000822206030   -0.0400
      3 C3          0.3738    4.9032   51.3863 C.ar    1  ZINC000822206030   -0.1500
      4 C4          0.0592    6.2433   51.2340 C.ar    1  ZINC000822206030    0.1100
      5 F5          0.9477    7.1912   51.6042 F       1  ZINC000822206030   -0.1400
      6 C6         -1.1647    6.6129   50.7023 C.ar    1  ZINC000822206030   -0.1500
      7 C7         -2.0748    5.6452   50.3236 C.ar    1  ZINC000822206030   -0.0800
      8 C8         -1.7592    4.3013   50.4705 C.ar    1  ZINC000822206030    0.1100
      9 N9         -2.6801    3.3187   50.0868 N.am    1  ZINC000822206030   -0.5600
     10 C10        -3.6835    2.8422   51.0419 C.3     1  ZINC000822206030    0.1500
     11 C11        -5.0474    3.3253   50.6206 C.ar    1  ZINC000822206030   -0.0900
     12 C12        -5.4323    4.6256   50.8930 C.ar    1  ZINC000822206030   -0.1000
     13 C13        -6.6801    5.0734   50.5090 C.ar    1  ZINC000822206030   -0.0800
     14 C14        -7.5525    4.2131   49.8460 C.ar    1  ZINC000822206030   -0.0100
     15 C15        -8.8957    4.6893   49.4301 C.2     1  ZINC000822206030    0.2200
     16 N16        -9.6108    4.2421   48.4173 N.2     1  ZINC000822206030   -0.2900
     17 N17       -10.7132    4.9090   48.3878 N.pl3   1  ZINC000822206030   -0.2300
     18 N18       -10.7191    5.7645   49.3497 N.2     1  ZINC000822206030   -0.0500
     19 N19        -9.6197    5.6539   50.0152 N.2     1  ZINC000822206030   -0.2700
     20 C20        -7.1598    2.9045   49.5742 C.ar    1  ZINC000822206030   -0.0800
     21 C21        -5.9076    2.4686   49.9580 C.ar    1  ZINC000822206030   -0.0900
     22 C22        -2.6434    2.8114   48.8386 C.2     1  ZINC000822206030    0.5500
     23 O23        -3.4401    1.9592   48.5067 O.2     1  ZINC000822206030   -0.5000
     24 C24        -1.6125    3.3029   47.8555 C.3     1  ZINC000822206030   -0.1900
     25 H25        -1.2833    4.3326   47.9949 H       1  ZINC000822206030    0.1200
     26 C26        -1.6960    2.7759   46.4216 C.3     1  ZINC000822206030   -0.1400
     27 C27        -0.5796    2.2932   47.3510 C.3     1  ZINC000822206030   -0.0900
     28 H28         0.4291    2.6586   47.1581 H       1  ZINC000822206030    0.1100
     29 C29        -0.6723    0.8614   47.8824 C.3     1  ZINC000822206030   -0.1100
     30 C30        -1.2851   -0.1957   46.9617 C.3     1  ZINC000822206030   -0.2000
     31 C31         0.2215   -0.1941   47.2284 C.3     1  ZINC000822206030   -0.1200
     32 H32         0.3025    2.1120   50.2733 H       1  ZINC000822206030    0.0900
     33 H33         0.4775    2.3535   52.0280 H       1  ZINC000822206030    0.0700
     34 H34        -1.1035    1.9039   51.3449 H       1  ZINC000822206030    0.0700
     35 H35         1.3291    4.6169   51.8007 H       1  ZINC000822206030    0.1400
     36 H36        -1.4081    7.6584   50.5840 H       1  ZINC000822206030    0.1400
     37 H37        -3.0295    5.9339   49.9093 H       1  ZINC000822206030    0.1400
     38 H38        -3.6750    1.7524   51.0644 H       1  ZINC000822206030    0.1000
     39 H39        -3.4520    3.2279   52.0348 H       1  ZINC000822206030    0.0900
     40 H40        -4.7554    5.2917   51.4074 H       1  ZINC000822206030    0.1300
     41 H41        -6.9798    6.0887   50.7224 H       1  ZINC000822206030    0.1400
     42 H42       -11.4264    4.7859   47.7419 H       1  ZINC000822206030    0.4800
     43 H43        -7.8324    2.2334   49.0608 H       1  ZINC000822206030    0.1300
     44 H44        -5.6021    1.4543   49.7478 H       1  ZINC000822206030    0.1400
     45 H45        -2.4966    2.0737   46.1894 H       1  ZINC000822206030    0.1000
     46 H46        -1.4214    3.4588   45.6176 H       1  ZINC000822206030    0.1000
     47 H47        -0.8611    0.7684   48.9519 H       1  ZINC000822206030    0.1000
     48 H48        -1.8774   -0.9845   47.4253 H       1  ZINC000822206030    0.0900
     49 H49        -1.6222    0.1287   45.9773 H       1  ZINC000822206030    0.0900
     50 H50         0.8754    0.1313   46.4194 H       1  ZINC000822206030    0.0800
     51 H51         0.6202   -0.9820   47.8675 H       1  ZINC000822206030    0.0900
@<TRIPOS>BOND
     1     1     2    1
     2     1    32    1
     3     1    33    1
     4     1    34    1
     5     2     8   ar
     6     2     3   ar
     7     3     4   ar
     8     3    35    1
     9     4     5    1
    10     4     6   ar
    11     6     7   ar
    12     6    36    1
    13     7     8   ar
    14     7    37    1
    15     8     9    1
    16     9    10    1
    17     9    22   am
    18    10    11    1
    19    10    38    1
    20    10    39    1
    21    11    21   ar
    22    11    12   ar
    23    12    13   ar
    24    12    40    1
    25    13    14   ar
    26    13    41    1
    27    14    15    1
    28    14    20   ar
    29    15    19    1
    30    15    16    2
    31    16    17    1
    32    17    18    1
    33    17    42    1
    34    18    19    2
    35    20    21   ar
    36    20    43    1
    37    21    44    1
    38    22    23    2
    39    22    24    1
    40    24    25    1
    41    24    27    1
    42    24    26    1
    43    26    27    1
    44    26    45    1
    45    26    46    1
    46    27    28    1
    47    27    29    1
    48    29    31    1
    49    29    30    1
    50    29    47    1
    51    30    31    1
    52    30    48    1
    53    30    49    1
    54    31    50    1
    55    31    51    1
@<TRIPOS>SUBSTRUCTURE
     1 ZINC000822206030        1 TEMP              0 ****  ****    0 ROOT


##########                                Name:    ZINC000521663393
##########                DOCK_Rotatable_Bonds:                   5
##########                         Heavy_Atoms:                  27
##########                    Molecular_Weight:              386.49
##########                DOCK_Rotatable_Bonds:                   5
##########                       Formal_Charge:               -0.02
##########                     HBond_Acceptors:                   6
##########                        HBond_Donors:                   1
##########                         Heavy_Atoms:                  27
##########                          Grid_Score:          -30.849663
##########                     Grid_vdw_energy:          -30.472132
##########                      Grid_es_energy:           -0.377532
##########           Internal_energy_repulsive:           17.299047

@<TRIPOS>MOLECULE
ZINC000521663393
 50 53 1 0 0
SMALL
USER_CHARGES


@<TRIPOS>ATOM
      1 C1         -0.1828    1.8991   51.1893 C.3     1  ZINC000521663393   -0.1500
      2 C2         -0.9387    1.1715   50.0756 C.3     1  ZINC000521663393    0.0800
      3 H3         -1.3558    0.2339   50.4429 H       1  ZINC000521663393    0.0900
      4 O4         -0.0810    0.9393   48.9454 O.3     1  ZINC000521663393   -0.2900
      5 C5         -0.8145    1.0203   47.8015 C.ar    1  ZINC000521663393    0.1400
      6 C6         -0.5342    0.5389   46.5257 C.ar    1  ZINC000521663393   -0.1800
      7 C7         -1.4285    0.7447   45.4926 C.ar    1  ZINC000521663393    0.1400
      8 F8         -1.1487    0.2749   44.2572 F       1  ZINC000521663393   -0.1300
      9 C9         -2.6104    1.4301   45.7180 C.ar    1  ZINC000521663393   -0.1800
     10 C10        -2.8967    1.9068   46.9849 C.ar    1  ZINC000521663393   -0.0200
     11 C11        -2.0076    1.6994   48.0159 C.ar    1  ZINC000521663393   -0.2000
     12 C12        -2.0502    2.0730   49.4881 C.3     1  ZINC000521663393    0.1700
     13 H13        -1.8125    3.1273   49.6294 H       1  ZINC000521663393    0.1200
     14 N14        -3.3542    1.7501   50.0726 N.am    1  ZINC000521663393   -0.7200
     15 C15        -4.2555    2.7281   50.2911 C.2     1  ZINC000521663393    0.5300
     16 O16        -3.9878    3.8751   50.0023 O.2     1  ZINC000521663393   -0.5000
     17 C17        -5.5962    2.3961   50.8940 C.3     1  ZINC000521663393    0.1200
     18 H18        -5.9145    1.4113   50.5521 H       1  ZINC000521663393    0.0700
     19 C19        -5.4845    2.3943   52.3969 C.ar    1  ZINC000521663393   -0.0900
     20 C20        -4.3552    2.9079   53.0067 C.ar    1  ZINC000521663393   -0.0900
     21 C21        -4.2527    2.9062   54.3851 C.ar    1  ZINC000521663393   -0.1200
     22 C22        -5.2797    2.3914   55.1540 C.ar    1  ZINC000521663393   -0.1100
     23 C23        -6.4094    1.8787   54.5443 C.ar    1  ZINC000521663393   -0.1200
     24 C24        -6.5137    1.8842   53.1658 C.ar    1  ZINC000521663393   -0.1100
     25 N25        -6.5829    3.4016   50.4776 N.3     1  ZINC000521663393   -0.5300
     26 C26        -6.6024    4.5341   51.4062 C.3     1  ZINC000521663393    0.0500
     27 C27        -7.2822    5.7379   50.7451 C.3     1  ZINC000521663393   -0.0700
     28 S28        -9.0033    5.2908   50.3625 S.3     1  ZINC000521663393   -0.2700
     29 C29        -8.7932    3.7239   49.4629 C.3     1  ZINC000521663393   -0.0700
     30 C30        -7.9053    2.7973   50.3006 C.3     1  ZINC000521663393    0.0600
     31 H31        -0.8685    2.1260   52.0056 H       1  ZINC000521663393    0.0800
     32 H32         0.6225    1.2633   51.5572 H       1  ZINC000521663393    0.0800
     33 H33         0.2361    2.8263   50.7983 H       1  ZINC000521663393    0.0700
     34 H34         0.3856    0.0032   46.3427 H       1  ZINC000521663393    0.1400
     35 H35        -3.3060    1.5922   44.9079 H       1  ZINC000521663393    0.1400
     36 H36        -3.8174    2.4415   47.1653 H       1  ZINC000521663393    0.1300
     37 H37        -3.5688    0.8326   50.3025 H       1  ZINC000521663393    0.4000
     38 H38        -3.5528    3.3101   52.4060 H       1  ZINC000521663393    0.1300
     39 H39        -3.3701    3.3068   54.8615 H       1  ZINC000521663393    0.1300
     40 H40        -5.1994    2.3895   56.2310 H       1  ZINC000521663393    0.1200
     41 H41        -7.2117    1.4761   55.1448 H       1  ZINC000521663393    0.1300
     42 H42        -7.3964    1.4836   52.6894 H       1  ZINC000521663393    0.1200
     43 H43        -7.1525    4.2559   52.3051 H       1  ZINC000521663393    0.0500
     44 H44        -5.5800    4.7987   51.6762 H       1  ZINC000521663393    0.1000
     45 H45        -7.2676    6.5873   51.4279 H       1  ZINC000521663393    0.1100
     46 H46        -6.7574    5.9950   49.8249 H       1  ZINC000521663393    0.0900
     47 H47        -9.7661    3.2573   49.3079 H       1  ZINC000521663393    0.1100
     48 H48        -8.3181    3.9149   48.5007 H       1  ZINC000521663393    0.1000
     49 H49        -7.8005    1.8390   49.7920 H       1  ZINC000521663393    0.0800
     50 H50        -8.3650    2.6398   51.2762 H       1  ZINC000521663393    0.0500
@<TRIPOS>BOND
     1     1     2    1
     2     1    31    1
     3     1    32    1
     4     1    33    1
     5     2     3    1
     6     2    12    1
     7     2     4    1
     8     4     5    1
     9     5    11   ar
    10     5     6   ar
    11     6     7   ar
    12     6    34    1
    13     7     8    1
    14     7     9   ar
    15     9    10   ar
    16     9    35    1
    17    10    11   ar
    18    10    36    1
    19    11    12    1
    20    12    13    1
    21    12    14    1
    22    14    15   am
    23    14    37    1
    24    15    16    2
    25    15    17    1
    26    17    18    1
    27    17    19    1
    28    17    25    1
    29    19    24   ar
    30    19    20   ar
    31    20    21   ar
    32    20    38    1
    33    21    22   ar
    34    21    39    1
    35    22    23   ar
    36    22    40    1
    37    23    24   ar
    38    23    41    1
    39    24    42    1
    40    25    30    1
    41    25    26    1
    42    26    27    1
    43    26    43    1
    44    26    44    1
    45    27    28    1
    46    27    45    1
    47    27    46    1
    48    28    29    1
    49    29    30    1
    50    29    47    1
    51    29    48    1
    52    30    49    1
    53    30    50    1
@<TRIPOS>SUBSTRUCTURE
     1 ZINC000521663393        1 TEMP              0 ****  ****    0 ROOT


##########                                Name:    ZINC000502834785
##########                DOCK_Rotatable_Bonds:                   9
##########                         Heavy_Atoms:                  26
##########                    Molecular_Weight:             356.468
##########                DOCK_Rotatable_Bonds:                   9
##########                       Formal_Charge:           0.0199998
##########                     HBond_Acceptors:                   6
##########                        HBond_Donors:                   2
##########                         Heavy_Atoms:                  26
##########                          Grid_Score:          -30.847866
##########                     Grid_vdw_energy:          -29.710953
##########                      Grid_es_energy:           -1.136914
##########           Internal_energy_repulsive:           18.074192

@<TRIPOS>MOLECULE
ZINC000502834785
 54 56 1 0 0
SMALL
USER_CHARGES


@<TRIPOS>ATOM
      1 C1         -7.1060   -0.3141   58.4803 C.3     1  ZINC000502834785   -0.1800
      2 C2         -7.7521    0.8222   57.6850 C.3     1  ZINC000502834785    0.0800
      3 C3         -7.2700    2.1668   58.2334 C.3     1  ZINC000502834785   -0.1500
      4 O4         -7.3842    0.7095   56.3088 O.3     1  ZINC000502834785   -0.3800
      5 C5         -8.4957    0.6074   55.4165 C.3     1  ZINC000502834785    0.1000
      6 C6         -8.0647    1.0084   54.0292 C.ar    1  ZINC000502834785   -0.0800
      7 C7         -7.1321    2.0145   53.8590 C.ar    1  ZINC000502834785   -0.1000
      8 C8         -6.7368    2.3823   52.5864 C.ar    1  ZINC000502834785   -0.1000
      9 C9         -7.2737    1.7437   51.4842 C.ar    1  ZINC000502834785   -0.1000
     10 C10        -6.8431    2.1451   50.0969 C.3     1  ZINC000502834785    0.1600
     11 N11        -5.4184    1.8514   49.9237 N.am    1  ZINC000502834785   -0.7300
     12 C12        -4.5133    2.8484   49.9788 C.2     1  ZINC000502834785    0.5100
     13 O13        -4.8781    3.9886   50.1731 O.2     1  ZINC000502834785   -0.5200
     14 C14        -3.0478    2.5465   49.7988 C.3     1  ZINC000502834785    0.0300
     15 N15        -2.6059    3.0308   48.4842 N.3     1  ZINC000502834785   -0.5000
     16 C16        -3.1480    2.1860   47.3987 C.3     1  ZINC000502834785    0.0500
     17 C17        -2.0463    2.1860   46.3097 C.3     1  ZINC000502834785   -0.1300
     18 C18        -0.7554    2.1637   47.1699 C.3     1  ZINC000502834785   -0.1300
     19 C19        -1.1347    3.0314   48.3885 C.3     1  ZINC000502834785    0.1500
     20 H20        -0.7727    4.0496   48.2457 H       1  ZINC000502834785    0.1100
     21 C21        -0.5358    2.4457   49.6412 C.2     1  ZINC000502834785    0.0600
     22 N22        -0.4275    1.1711   49.9163 N.2     1  ZINC000502834785   -0.2900
     23 N23         0.1822    1.0445   51.1712 N.pl3   1  ZINC000502834785   -0.4800
     24 C24         0.4349    2.2855   51.6372 C.2     1  ZINC000502834785    0.0600
     25 C25         0.0057    3.1705   50.7079 C.2     1  ZINC000502834785   -0.2600
     26 C26        -8.2053    0.7368   51.6546 C.ar    1  ZINC000502834785   -0.1000
     27 C27        -8.5978    0.3663   52.9272 C.ar    1  ZINC000502834785   -0.1000
     28 H28        -7.4494   -1.2720   58.0896 H       1  ZINC000502834785    0.0600
     29 H29        -6.0217   -0.2516   58.3877 H       1  ZINC000502834785    0.0600
     30 H30        -7.3866   -0.2281   59.5301 H       1  ZINC000502834785    0.0700
     31 H31        -8.8363    0.7598   57.7776 H       1  ZINC000502834785    0.0600
     32 H32        -6.1858    2.2292   58.1408 H       1  ZINC000502834785    0.0600
     33 H33        -7.7303    2.9762   57.6669 H       1  ZINC000502834785    0.0600
     34 H34        -7.5507    2.2527   59.2831 H       1  ZINC000502834785    0.0700
     35 H35        -8.8565   -0.4210   55.4018 H       1  ZINC000502834785    0.0600
     36 H36        -9.2944    1.2679   55.7540 H       1  ZINC000502834785    0.0600
     37 H37        -6.7126    2.5133   54.7201 H       1  ZINC000502834785    0.1300
     38 H38        -6.0087    3.1688   52.4533 H       1  ZINC000502834785    0.1300
     39 H39        -7.4213    1.5862   49.3611 H       1  ZINC000502834785    0.0800
     40 H40        -7.0135    3.2127   49.9582 H       1  ZINC000502834785    0.0800
     41 H41        -5.1264    0.9392   49.7695 H       1  ZINC000502834785    0.4000
     42 H42        -2.4754    3.0452   50.5809 H       1  ZINC000502834785    0.1000
     43 H43        -2.8882    1.4701   49.8619 H       1  ZINC000502834785    0.0800
     44 H44        -3.3253    1.1727   47.7590 H       1  ZINC000502834785    0.0400
     45 H45        -4.0692    2.6169   47.0065 H       1  ZINC000502834785    0.1000
     46 H46        -2.1146    1.2953   45.6851 H       1  ZINC000502834785    0.0800
     47 H47        -2.0961    3.0907   45.7038 H       1  ZINC000502834785    0.0800
     48 H48        -0.5167    1.1465   47.4805 H       1  ZINC000502834785    0.0800
     49 H49         0.0782    2.6073   46.6255 H       1  ZINC000502834785    0.0800
     50 H50         0.3867    0.2119   51.6249 H       1  ZINC000502834785    0.4400
     51 H51         0.9003    2.5287   52.5809 H       1  ZINC000502834785    0.1800
     52 H52         0.0650    4.2464   50.7799 H       1  ZINC000502834785    0.1500
     53 H53        -8.6246    0.2376   50.7935 H       1  ZINC000502834785    0.1300
     54 H54        -9.3256   -0.4204   53.0603 H       1  ZINC000502834785    0.1200
@<TRIPOS>BOND
     1     1     2    1
     2     1    28    1
     3     1    29    1
     4     1    30    1
     5     2     3    1
     6     2     4    1
     7     2    31    1
     8     3    32    1
     9     3    33    1
    10     3    34    1
    11     4     5    1
    12     5     6    1
    13     5    35    1
    14     5    36    1
    15     6    27   ar
    16     6     7   ar
    17     7     8   ar
    18     7    37    1
    19     8     9   ar
    20     8    38    1
    21     9    10    1
    22     9    26   ar
    23    10    11    1
    24    10    39    1
    25    10    40    1
    26    11    12   am
    27    11    41    1
    28    12    13    2
    29    12    14    1
    30    14    15    1
    31    14    42    1
    32    14    43    1
    33    15    19    1
    34    15    16    1
    35    16    17    1
    36    16    44    1
    37    16    45    1
    38    17    18    1
    39    17    46    1
    40    17    47    1
    41    18    19    1
    42    18    48    1
    43    18    49    1
    44    19    20    1
    45    19    21    1
    46    21    25    1
    47    21    22    2
    48    22    23    1
    49    23    24    1
    50    23    50    1
    51    24    25    2
    52    24    51    1
    53    25    52    1
    54    26    27   ar
    55    26    53    1
    56    27    54    1
@<TRIPOS>SUBSTRUCTURE
     1 ZINC000502834785        1 TEMP              0 ****  ****    0 ROOT


##########                                Name:    ZINC000163855860
##########                DOCK_Rotatable_Bonds:                   6
##########                         Heavy_Atoms:                  28
##########                    Molecular_Weight:             398.483
##########                DOCK_Rotatable_Bonds:                   6
##########                       Formal_Charge:          -0.0100004
##########                     HBond_Acceptors:                   7
##########                        HBond_Donors:                   1
##########                         Heavy_Atoms:                  28
##########                          Grid_Score:          -30.835855
##########                     Grid_vdw_energy:          -26.994648
##########                      Grid_es_energy:           -3.841208
##########           Internal_energy_repulsive:           17.154827

@<TRIPOS>MOLECULE
ZINC000163855860
 50 53 1 0 0
SMALL
USER_CHARGES


@<TRIPOS>ATOM
      1 C1        -10.9333   -1.8170   60.4262 C.3     1  ZINC000163855860   -0.1300
      2 C2         -9.7858   -1.1454   59.7169 C.ar    1  ZINC000163855860   -0.0600
      3 C3         -8.9835   -0.2406   60.3941 C.ar    1  ZINC000163855860    0.1400
      4 N4         -9.2382    0.0503   61.7392 N.am    1  ZINC000163855860   -0.6700
      5 C5        -10.2091    0.9258   62.0673 C.2     1  ZINC000163855860    0.5100
      6 O6        -10.8620    1.4614   61.1968 O.2     1  ZINC000163855860   -0.5100
      7 C7        -10.4832    1.2389   63.5157 C.3     1  ZINC000163855860   -0.1300
      8 C8         -9.1619    1.2891   64.2855 C.3     1  ZINC000163855860   -0.1100
      9 H9         -8.4020    1.8283   63.7199 H       1  ZINC000163855860    0.1100
     10 C10        -9.3618    1.9222   65.6814 C.3     1  ZINC000163855860    0.0600
     11 O11        -8.4354    1.1990   66.5448 O.3     1  ZINC000163855860   -0.3500
     12 C12        -8.2805   -0.0558   66.0986 C.2     1  ZINC000163855860    0.4800
     13 O13        -7.8836   -0.9846   66.7615 O.2     1  ZINC000163855860   -0.4500
     14 C14        -8.6773   -0.1342   64.6404 C.3     1  ZINC000163855860   -0.1800
     15 C15        -7.9225    0.3736   59.7391 C.ar    1  ZINC000163855860   -0.1100
     16 C16        -7.6663    0.0890   58.4112 C.ar    1  ZINC000163855860   -0.1100
     17 C17        -8.4622   -0.8070   57.7264 C.ar    1  ZINC000163855860   -0.1000
     18 C18        -9.5304   -1.4286   58.3751 C.ar    1  ZINC000163855860   -0.1100
     19 C19       -10.3843   -2.3893   57.6441 C.2     1  ZINC000163855860    0.5700
     20 O20       -10.0593   -3.5582   57.5714 O.2     1  ZINC000163855860   -0.5300
     21 N21       -11.5230   -1.9688   57.0586 N.am    1  ZINC000163855860   -0.6100
     22 C22       -12.3867   -2.9077   56.3268 C.3     1  ZINC000163855860    0.1200
     23 C23       -13.7280   -3.0092   57.0699 C.3     1  ZINC000163855860   -0.0600
     24 C24       -14.1981   -1.6168   57.4334 C.2     1  ZINC000163855860   -0.1700
     25 C25       -13.4167   -0.5208   57.4703 C.2     1  ZINC000163855860   -0.1300
     26 C26       -14.0907    0.6371   57.8453 C.2     1  ZINC000163855860   -0.1200
     27 C27       -15.3867    0.4909   58.1023 C.2     1  ZINC000163855860   -0.2100
     28 S28       -15.8461   -1.1901   57.8768 S.3     1  ZINC000163855860    0.1100
     29 C29       -11.9314   -0.5587   57.1294 C.3     1  ZINC000163855860    0.1700
     30 H30       -11.8519   -1.2611   60.2383 H       1  ZINC000163855860    0.0700
     31 H31       -11.0431   -2.8361   60.0556 H       1  ZINC000163855860    0.0900
     32 H32       -10.7349   -1.8394   61.4978 H       1  ZINC000163855860    0.0700
     33 H33        -8.7160   -0.3783   62.4354 H       1  ZINC000163855860    0.4100
     34 H34       -11.1219    0.4643   63.9403 H       1  ZINC000163855860    0.1100
     35 H35       -10.9841    2.2040   63.5902 H       1  ZINC000163855860    0.1100
     36 H36       -10.3880    1.7801   66.0205 H       1  ZINC000163855860    0.0800
     37 H37        -9.1112    2.9827   65.6579 H       1  ZINC000163855860    0.1200
     38 H38        -7.8180   -0.4062   64.0275 H       1  ZINC000163855860    0.1200
     39 H39        -9.4842   -0.8545   64.5051 H       1  ZINC000163855860    0.1200
     40 H40        -7.2961    1.0752   60.2697 H       1  ZINC000163855860    0.1500
     41 H41        -6.8402    0.5690   57.9076 H       1  ZINC000163855860    0.1300
     42 H42        -8.2587   -1.0266   56.6888 H       1  ZINC000163855860    0.1300
     43 H43       -12.5534   -2.5389   55.3148 H       1  ZINC000163855860    0.0800
     44 H44       -11.9116   -3.8881   56.2884 H       1  ZINC000163855860    0.1000
     45 H45       -13.6004   -3.5994   57.9773 H       1  ZINC000163855860    0.0900
     46 H46       -14.4663   -3.4865   56.4254 H       1  ZINC000163855860    0.0900
     47 H47       -13.5933    1.5926   57.9229 H       1  ZINC000163855860    0.1400
     48 H48       -16.0552    1.2840   58.4031 H       1  ZINC000163855860    0.1700
     49 H49       -11.3613   -0.0478   57.9054 H       1  ZINC000163855860    0.1000
     50 H50       -11.7601   -0.0759   56.1673 H       1  ZINC000163855860    0.0900
@<TRIPOS>BOND
     1     1     2    1
     2     1    30    1
     3     1    31    1
     4     1    32    1
     5     2    18   ar
     6     2     3   ar
     7     3     4    1
     8     3    15   ar
     9     4     5   am
    10     4    33    1
    11     5     6    2
    12     5     7    1
    13     7     8    1
    14     7    34    1
    15     7    35    1
    16     8     9    1
    17     8    14    1
    18     8    10    1
    19    10    11    1
    20    10    36    1
    21    10    37    1
    22    11    12    1
    23    12    13    2
    24    12    14    1
    25    14    38    1
    26    14    39    1
    27    15    16   ar
    28    15    40    1
    29    16    17   ar
    30    16    41    1
    31    17    18   ar
    32    17    42    1
    33    18    19    1
    34    19    20    2
    35    19    21   am
    36    21    29    1
    37    21    22    1
    38    22    23    1
    39    22    43    1
    40    22    44    1
    41    23    24    1
    42    23    45    1
    43    23    46    1
    44    24    28    1
    45    24    25    2
    46    25    26    1
    47    25    29    1
    48    26    27    2
    49    26    47    1
    50    27    28    1
    51    27    48    1
    52    29    49    1
    53    29    50    1
@<TRIPOS>SUBSTRUCTURE
     1 ZINC000163855860        1 TEMP              0 ****  ****    0 ROOT


##########                                Name:    ZINC000469435497
##########                DOCK_Rotatable_Bonds:                   6
##########                         Heavy_Atoms:                  27
##########                    Molecular_Weight:             364.444
##########                DOCK_Rotatable_Bonds:                   6
##########                       Formal_Charge:           0.0300001
##########                     HBond_Acceptors:                   5
##########                        HBond_Donors:                   2
##########                         Heavy_Atoms:                  27
##########                          Grid_Score:          -30.826065
##########                     Grid_vdw_energy:          -27.886751
##########                      Grid_es_energy:           -2.939314
##########           Internal_energy_repulsive:            4.771806

@<TRIPOS>MOLECULE
ZINC000469435497
 51 54 1 0 0
SMALL
USER_CHARGES


@<TRIPOS>ATOM
      1 C1         -1.7035    2.0332   49.9943 C.3     1  ZINC000469435497   -0.1600
      2 C2         -3.0921    2.6754   50.0017 C.3     1  ZINC000469435497    0.1000
      3 C3         -3.6741    2.7196   48.5875 C.3     1  ZINC000469435497   -0.1400
      4 C4         -4.0392    1.9219   50.9652 C.3     1  ZINC000469435497   -0.1000
      5 C5         -3.8708    2.7094   52.2502 C.ar    1  ZINC000469435497   -0.1500
      6 C6         -4.2033    2.4271   53.5559 C.ar    1  ZINC000469435497   -0.0700
      7 C7         -3.9208    3.3477   54.5578 C.ar    1  ZINC000469435497    0.1100
      8 N8         -4.2564    3.0660   55.8886 N.am    1  ZINC000469435497   -0.6600
      9 C9         -5.4190    3.5166   56.4001 C.2     1  ZINC000469435497    0.5100
     10 O10        -6.1747    4.1660   55.7085 O.2     1  ZINC000469435497   -0.5200
     11 C11        -5.7802    3.2137   57.8316 C.3     1  ZINC000469435497    0.1000
     12 N12        -6.2187    1.8201   57.9402 N.am    1  ZINC000469435497   -0.7200
     13 C13        -7.4949    1.4913   57.6582 C.2     1  ZINC000469435497    0.5700
     14 O14        -8.2824    2.3513   57.3150 O.2     1  ZINC000469435497   -0.5300
     15 C15        -7.9370    0.0846   57.7661 C.ar    1  ZINC000469435497   -0.1400
     16 C16        -7.0782   -0.8826   58.2899 C.ar    1  ZINC000469435497   -0.0800
     17 C17        -7.4989   -2.1917   58.3867 C.ar    1  ZINC000469435497   -0.1100
     18 C18        -8.7696   -2.5533   57.9669 C.ar    1  ZINC000469435497   -0.0700
     19 C19        -9.4528   -3.9046   57.9698 C.3     1  ZINC000469435497   -0.0900
     20 C20       -10.9566   -3.5976   57.8081 C.3     1  ZINC000469435497   -0.1200
     21 C21       -10.9411   -2.2448   57.0654 C.3     1  ZINC000469435497   -0.0800
     22 C22        -9.6261   -1.5985   57.4464 C.ar    1  ZINC000469435497   -0.1100
     23 C23        -9.2168   -0.2822   57.3501 C.ar    1  ZINC000469435497   -0.0400
     24 C24        -3.3037    4.5479   54.2324 C.ar    1  ZINC000469435497   -0.1000
     25 C25        -2.9758    4.8286   52.9227 C.ar    1  ZINC000469435497   -0.1200
     26 C26        -3.2596    3.9109   51.9145 C.ar    1  ZINC000469435497    0.1000
     27 O27        -3.0403    3.9940   50.5725 O.3     1  ZINC000469435497   -0.3000
     28 H28        -1.3207    1.9832   51.0138 H       1  ZINC000469435497    0.0600
     29 H29        -1.7709    1.0265   49.5820 H       1  ZINC000469435497    0.0800
     30 H30        -1.0293    2.6321   49.3820 H       1  ZINC000469435497    0.0700
     31 H31        -3.7685    1.7045   48.2015 H       1  ZINC000469435497    0.0800
     32 H32        -4.6564    3.1912   48.6133 H       1  ZINC000469435497    0.0700
     33 H33        -3.0120    3.2943   47.9399 H       1  ZINC000469435497    0.0700
     34 H34        -5.0697    1.9671   50.6128 H       1  ZINC000469435497    0.0900
     35 H35        -3.7191    0.8883   51.0968 H       1  ZINC000469435497    0.0900
     36 H36        -4.6837    1.4914   53.8012 H       1  ZINC000469435497    0.1400
     37 H37        -3.6522    2.5465   56.4417 H       1  ZINC000469435497    0.4200
     38 H38        -4.9088    3.3710   58.4671 H       1  ZINC000469435497    0.1100
     39 H39        -6.5865    3.8742   58.1504 H       1  ZINC000469435497    0.1100
     40 H40        -5.5905    1.1340   58.2151 H       1  ZINC000469435497    0.4100
     41 H41        -6.0870   -0.6064   58.6182 H       1  ZINC000469435497    0.1300
     42 H42        -6.8342   -2.9404   58.7917 H       1  ZINC000469435497    0.1300
     43 H43        -9.0984   -4.5094   57.1351 H       1  ZINC000469435497    0.0900
     44 H44        -9.2712   -4.4182   58.9139 H       1  ZINC000469435497    0.0800
     45 H45       -11.4460   -4.3639   57.2070 H       1  ZINC000469435497    0.0800
     46 H46       -11.4388   -3.5001   58.7807 H       1  ZINC000469435497    0.0700
     47 H47       -10.9861   -2.4042   55.9882 H       1  ZINC000469435497    0.0800
     48 H48       -11.7758   -1.6246   57.3919 H       1  ZINC000469435497    0.0800
     49 H49        -9.8877    0.4632   56.9491 H       1  ZINC000469435497    0.1400
     50 H50        -3.0798    5.2650   55.0084 H       1  ZINC000469435497    0.1400
     51 H51        -2.4962    5.7648   52.6775 H       1  ZINC000469435497    0.1300
@<TRIPOS>BOND
     1     1     2    1
     2     1    28    1
     3     1    29    1
     4     1    30    1
     5     2    27    1
     6     2     3    1
     7     2     4    1
     8     3    31    1
     9     3    32    1
    10     3    33    1
    11     4     5    1
    12     4    34    1
    13     4    35    1
    14     5    26   ar
    15     5     6   ar
    16     6     7   ar
    17     6    36    1
    18     7     8    1
    19     7    24   ar
    20     8     9   am
    21     8    37    1
    22     9    10    2
    23     9    11    1
    24    11    12    1
    25    11    38    1
    26    11    39    1
    27    12    13   am
    28    12    40    1
    29    13    14    2
    30    13    15    1
    31    15    23   ar
    32    15    16   ar
    33    16    17   ar
    34    16    41    1
    35    17    18   ar
    36    17    42    1
    37    18    22   ar
    38    18    19    1
    39    19    20    1
    40    19    43    1
    41    19    44    1
    42    20    21    1
    43    20    45    1
    44    20    46    1
    45    21    22    1
    46    21    47    1
    47    21    48    1
    48    22    23   ar
    49    23    49    1
    50    24    25   ar
    51    24    50    1
    52    25    26   ar
    53    25    51    1
    54    26    27    1
@<TRIPOS>SUBSTRUCTURE
     1 ZINC000469435497        1 TEMP              0 ****  ****    0 ROOT


##########                                Name:    ZINC001053433946
##########                DOCK_Rotatable_Bonds:                   6
##########                         Heavy_Atoms:                  24
##########                    Molecular_Weight:             337.419
##########                DOCK_Rotatable_Bonds:                   6
##########                       Formal_Charge:               -0.02
##########                     HBond_Acceptors:                   7
##########                        HBond_Donors:                   2
##########                         Heavy_Atoms:                  24
##########                          Grid_Score:          -30.766914
##########                     Grid_vdw_energy:          -29.009708
##########                      Grid_es_energy:           -1.757205
##########           Internal_energy_repulsive:           15.750675

@<TRIPOS>MOLECULE
ZINC001053433946
 51 54 1 0 0
SMALL
USER_CHARGES


@<TRIPOS>ATOM
      1 N1         -8.0597    2.7541   49.8711 N.am    1  ZINC001053433946   -0.8300
      2 C2         -6.8798    2.1356   50.0749 C.2     1  ZINC001053433946    0.5600
      3 O3         -6.0033    2.2110   49.2401 O.2     1  ZINC001053433946   -0.5500
      4 C4         -6.6495    1.3500   51.3402 C.3     1  ZINC001053433946   -0.1600
      5 H5         -6.3576    0.3091   51.2008 H       1  ZINC001053433946    0.1400
      6 C6         -7.5289    1.6815   52.5475 C.3     1  ZINC001053433946   -0.1300
      7 C7         -6.0554    2.0961   52.5366 C.3     1  ZINC001053433946   -0.1700
      8 H8         -5.3731    1.5460   53.1846 H       1  ZINC001053433946    0.1400
      9 C9         -5.7458    3.5603   52.3604 C.2     1  ZINC001053433946    0.5400
     10 O10        -6.6483    4.3688   52.3065 O.2     1  ZINC001053433946   -0.5200
     11 N11        -4.4660    3.9715   52.2626 N.am    1  ZINC001053433946   -0.6100
     12 C12        -4.1373    5.3952   52.0902 C.3     1  ZINC001053433946    0.0700
     13 C13        -3.2078    5.5424   50.8809 C.3     1  ZINC001053433946    0.0500
     14 O14        -2.0750    4.6838   51.0465 O.3     1  ZINC001053433946   -0.3400
     15 C15        -2.4069    3.3026   51.1593 C.3     1  ZINC001053433946    0.0800
     16 C16        -2.8501    2.6631   49.8367 C.3     1  ZINC001053433946   -0.0100
     17 N17        -1.4233    2.3184   49.6438 N.3     1  ZINC001053433946   -0.4700
     18 C18        -1.2769    0.9487   49.1333 C.3     1  ZINC001053433946    0.0200
     19 C19        -1.7894    0.8837   47.6932 C.3     1  ZINC001053433946   -0.1200
     20 H20        -2.8675    1.0437   47.6826 H       1  ZINC001053433946    0.0800
     21 C21        -1.1028    1.9675   46.8562 C.3     1  ZINC001053433946   -0.1200
     22 C22        -1.5650    1.8426   45.4012 C.3     1  ZINC001053433946   -0.1600
     23 C23        -1.2530    0.4323   44.8940 C.3     1  ZINC001053433946    0.0600
     24 O24        -1.8965   -0.5279   45.7346 O.3     1  ZINC001053433946   -0.3800
     25 C25        -1.4702   -0.4902   47.0980 C.3     1  ZINC001053433946    0.0700
     26 C26        -1.1916    2.3674   51.1053 C.3     1  ZINC001053433946    0.0200
     27 C27        -3.3515    3.0102   52.3312 C.3     1  ZINC001053433946    0.1000
     28 H28        -8.2083    3.2587   49.0561 H       1  ZINC001053433946    0.4000
     29 H29        -8.7617    2.6914   50.5375 H       1  ZINC001053433946    0.4000
     30 H30        -8.2741    2.4677   52.4265 H       1  ZINC001053433946    0.1100
     31 H31        -7.8153    0.8587   53.2025 H       1  ZINC001053433946    0.1200
     32 H32        -5.0517    5.9635   51.9196 H       1  ZINC001053433946    0.1000
     33 H33        -3.6356    5.7654   52.9842 H       1  ZINC001053433946    0.0800
     34 H34        -3.7447    5.2654   49.9737 H       1  ZINC001053433946    0.0600
     35 H35        -2.8722    6.5766   50.8040 H       1  ZINC001053433946    0.1100
     36 H36        -3.4985    1.7961   49.9631 H       1  ZINC001053433946    0.0800
     37 H37        -3.2316    3.3789   49.1085 H       1  ZINC001053433946    0.0900
     38 H38        -0.2255    0.6621   49.1581 H       1  ZINC001053433946    0.0500
     39 H39        -1.8546    0.2654   49.7558 H       1  ZINC001053433946    0.0800
     40 H40        -1.3724    2.9509   47.2413 H       1  ZINC001053433946    0.0700
     41 H41        -0.0218    1.8379   46.9078 H       1  ZINC001053433946    0.0700
     42 H42        -2.6387    2.0214   45.3433 H       1  ZINC001053433946    0.0700
     43 H43        -1.0394    2.5747   44.7879 H       1  ZINC001053433946    0.0700
     44 H44        -1.6184    0.3242   43.8728 H       1  ZINC001053433946    0.0900
     45 H45        -0.1756    0.2687   44.9141 H       1  ZINC001053433946    0.0500
     46 H46        -0.3956   -0.6656   47.1479 H       1  ZINC001053433946    0.0500
     47 H47        -1.9914   -1.2628   47.6633 H       1  ZINC001053433946    0.1000
     48 H48        -0.2543    2.8480   51.3859 H       1  ZINC001053433946    0.1000
     49 H49        -1.3488    1.4129   51.6076 H       1  ZINC001053433946    0.0900
     50 H50        -2.8158    3.1247   53.2736 H       1  ZINC001053433946    0.0800
     51 H51        -3.7383    1.9945   52.2479 H       1  ZINC001053433946    0.1000
@<TRIPOS>BOND
     1     1     2   am
     2     1    28    1
     3     1    29    1
     4     2     3    2
     5     2     4    1
     6     4     5    1
     7     4     7    1
     8     4     6    1
     9     6     7    1
    10     6    30    1
    11     6    31    1
    12     7     8    1
    13     7     9    1
    14     9    10    2
    15     9    11   am
    16    11    27    1
    17    11    12    1
    18    12    13    1
    19    12    32    1
    20    12    33    1
    21    13    14    1
    22    13    34    1
    23    13    35    1
    24    14    15    1
    25    15    26    1
    26    15    16    1
    27    15    27    1
    28    16    17    1
    29    16    36    1
    30    16    37    1
    31    17    18    1
    32    17    26    1
    33    18    19    1
    34    18    38    1
    35    18    39    1
    36    19    20    1
    37    19    25    1
    38    19    21    1
    39    21    22    1
    40    21    40    1
    41    21    41    1
    42    22    23    1
    43    22    42    1
    44    22    43    1
    45    23    24    1
    46    23    44    1
    47    23    45    1
    48    24    25    1
    49    25    46    1
    50    25    47    1
    51    26    48    1
    52    26    49    1
    53    27    50    1
    54    27    51    1
@<TRIPOS>SUBSTRUCTURE
     1 ZINC001053433946        1 TEMP              0 ****  ****    0 ROOT


##########                                Name:    ZINC000285228948
##########                DOCK_Rotatable_Bonds:                   8
##########                         Heavy_Atoms:                  23
##########                    Molecular_Weight:             339.822
##########                DOCK_Rotatable_Bonds:                   8
##########                       Formal_Charge:           0.0299997
##########                     HBond_Acceptors:                   7
##########                        HBond_Donors:                   3
##########                         Heavy_Atoms:                  23
##########                          Grid_Score:          -30.733030
##########                     Grid_vdw_energy:          -28.950838
##########                      Grid_es_energy:           -1.782192
##########           Internal_energy_repulsive:           22.584845

@<TRIPOS>MOLECULE
ZINC000285228948
 45 46 1 0 0
SMALL
USER_CHARGES


@<TRIPOS>ATOM
      1 C1         -6.1141    4.1005   50.5221 C.3     1  <0>        -0.1600
      2 C2         -5.9698    2.5852   50.3676 C.3     1  <0>         0.1800
      3 H3         -6.2763    2.2915   49.3636 H       1  <0>         0.1100
      4 C4         -6.8419    1.8915   51.3821 C.ar    1  <0>        -0.0900
      5 C5         -7.3698    0.6448   51.1024 C.ar    1  <0>        -0.1000
      6 C6         -8.1697    0.0082   52.0324 C.ar    1  <0>        -0.1100
      7 C7         -8.4422    0.6188   53.2436 C.ar    1  <0>        -0.0300
      8 Cl8        -9.4464   -0.1805   54.4126 Cl      1  <0>        -0.0700
      9 C9         -7.9137    1.8665   53.5231 C.ar    1  <0>        -0.1100
     10 C10        -7.1092    2.4997   52.5945 C.ar    1  <0>        -0.0900
     11 N11        -4.5719    2.2034   50.5827 N.am    1  <0>        -0.6100
     12 C12        -4.0447    2.0906   51.9449 C.3     1  <0>         0.0600
     13 C13        -3.7709    1.9558   49.5274 C.2     1  <0>         0.5200
     14 O14        -4.2079    2.0476   48.3997 O.2     1  <0>        -0.5200
     15 C15        -2.3325    1.5647   49.7486 C.3     1  <0>         0.0300
     16 N16        -1.8162    0.8967   48.5464 N.3     1  <0>        -0.4900
     17 C17        -0.5656    0.1536   48.8461 C.3     1  <0>         0.0400
     18 C18         0.0890   -0.0157   47.4520 C.3     1  <0>        -0.1400
     19 C19        -0.2373    1.3235   46.7521 C.3     1  <0>         0.1100
     20 O20         0.8677    2.2230   46.8625 O.3     1  <0>        -0.5400
     21 C21        -0.5755    1.0875   45.3027 C.2     1  <0>         0.5000
     22 N22        -1.5750    0.2458   44.9724 N.am    1  <0>        -0.8500
     23 O23         0.0516    1.6550   44.4334 O.2     1  <0>        -0.5200
     24 C24        -1.4591    1.8832   47.5040 C.3     1  <0>         0.0600
     25 H25        -7.1542    4.3846   50.3620 H       1  <0>         0.0700
     26 H26        -5.8076    4.3942   51.5260 H       1  <0>         0.0600
     27 H27        -5.4834    4.6023   49.7883 H       1  <0>         0.0700
     28 H28        -7.1573    0.1685   50.1567 H       1  <0>         0.1400
     29 H29        -8.5823   -0.9657   51.8135 H       1  <0>         0.1300
     30 H30        -8.1262    2.3437   54.4682 H       1  <0>         0.1400
     31 H31        -6.6963    3.4735   52.8126 H       1  <0>         0.1300
     32 H32        -4.2259    1.0843   52.3225 H       1  <0>         0.0600
     33 H33        -2.9728    2.2882   51.9371 H       1  <0>         0.0800
     34 H34        -4.5430    2.8155   52.5885 H       1  <0>         0.0800
     35 H35        -1.7403    2.4572   49.9510 H       1  <0>         0.1100
     36 H36        -2.2673    0.8851   50.5983 H       1  <0>         0.0700
     37 H37         0.0788    0.7349   49.5056 H       1  <0>         0.0400
     38 H38        -0.7914   -0.8181   49.2857 H       1  <0>         0.1200
     39 H39         1.1666   -0.1496   47.5455 H       1  <0>         0.0900
     40 H40        -0.3594   -0.8512   46.9143 H       1  <0>         0.0900
     41 H41         1.6847    1.8930   46.4642 H       1  <0>         0.3800
     42 H42        -1.7920    0.0930   44.0394 H       1  <0>         0.4000
     43 H43        -2.0773   -0.2072   45.6677 H       1  <0>         0.4100
     44 H44        -2.2928    2.0123   46.8137 H       1  <0>         0.1100
     45 H45        -1.2056    2.8370   47.9666 H       1  <0>         0.0700
@<TRIPOS>BOND
     1     1     2    1
     2     1    25    1
     3     1    26    1
     4     1    27    1
     5     2     3    1
     6     2     4    1
     7     2    11    1
     8     4    10   ar
     9     4     5   ar
    10     5     6   ar
    11     5    28    1
    12     6     7   ar
    13     6    29    1
    14     7     8    1
    15     7     9   ar
    16     9    10   ar
    17     9    30    1
    18    10    31    1
    19    11    12    1
    20    11    13   am
    21    12    32    1
    22    12    33    1
    23    12    34    1
    24    13    14    2
    25    13    15    1
    26    15    16    1
    27    15    35    1
    28    15    36    1
    29    16    24    1
    30    16    17    1
    31    17    18    1
    32    17    37    1
    33    17    38    1
    34    18    19    1
    35    18    39    1
    36    18    40    1
    37    19    20    1
    38    19    21    1
    39    19    24    1
    40    20    41    1
    41    21    22   am
    42    21    23    2
    43    22    42    1
    44    22    43    1
    45    24    44    1
    46    24    45    1
@<TRIPOS>SUBSTRUCTURE
     1 <0>         1 TEMP              0 ****  ****    0 ROOT


##########                                Name:    ZINC000265724350
##########                DOCK_Rotatable_Bonds:                   8
##########                         Heavy_Atoms:                  23
##########                    Molecular_Weight:              345.42
##########                DOCK_Rotatable_Bonds:                   8
##########                       Formal_Charge:          -0.0300002
##########                     HBond_Acceptors:                   9
##########                        HBond_Donors:                   2
##########                         Heavy_Atoms:                  23
##########                          Grid_Score:          -30.725309
##########                     Grid_vdw_energy:          -29.759571
##########                      Grid_es_energy:           -0.965738
##########           Internal_energy_repulsive:            7.193330

@<TRIPOS>MOLECULE
ZINC000265724350
 46 47 1 0 0
SMALL
USER_CHARGES


@<TRIPOS>ATOM
      1 C1        -10.9583    0.5432   52.2455 C.3     1  ZINC000265724350    0.0800
      2 N2         -9.7250    1.3293   52.1582 N.am    1  ZINC000265724350   -1.1100
      3 S3         -8.2834    0.6627   52.6269 S.o2    1  ZINC000265724350    2.7200
      4 O4         -8.3742    0.4560   54.0298 O.2     1  ZINC000265724350   -0.9300
      5 O5         -8.0051   -0.3812   51.7039 O.2     1  ZINC000265724350   -0.9300
      6 C6         -7.0394    1.8866   52.3837 C.2     1  ZINC000265724350   -0.5600
      7 C7         -7.2334    3.2235   52.4179 C.2     1  ZINC000265724350   -0.0900
      8 C8         -5.9895    3.8276   52.1769 C.2     1  ZINC000265724350   -0.1400
      9 C9         -5.0884    2.8161   52.0056 C.2     1  ZINC000265724350   -0.0200
     10 C10        -3.6568    2.9749   51.7294 C.2     1  ZINC000265724350    0.6000
     11 O11        -3.1636    4.0869   51.6940 O.2     1  ZINC000265724350   -0.5000
     12 N12        -2.8874    1.8893   51.5149 N.am    1  ZINC000265724350   -0.7100
     13 C13        -1.4571    2.0479   51.2407 C.3     1  ZINC000265724350    0.1200
     14 C14        -1.2482    2.2877   49.7441 C.3     1  ZINC000265724350   -0.1100
     15 H15        -1.7701    3.1968   49.4455 H       1  ZINC000265724350    0.0800
     16 C16         0.2466    2.4396   49.4557 C.3     1  ZINC000265724350   -0.1400
     17 C17        -1.8016    1.0994   48.9551 C.3     1  ZINC000265724350    0.0600
     18 N18        -1.6960    1.3752   47.5161 N.3     1  ZINC000265724350   -0.5300
     19 C19        -2.8343    2.1797   47.0489 C.3     1  ZINC000265724350    0.0100
     20 C20        -2.6541    2.4936   45.5613 C.3     1  ZINC000265724350    0.0600
     21 O21        -2.5212    1.2697   44.8336 O.3     1  ZINC000265724350   -0.3900
     22 C22        -1.4219    0.4614   45.2622 C.3     1  ZINC000265724350    0.0600
     23 C23        -1.5897    0.1269   46.7467 C.3     1  ZINC000265724350    0.0200
     24 O24        -5.7447    1.6451   52.1404 O.3     1  ZINC000265724350   -0.1100
     25 H25       -11.7977    1.1442   51.8960 H       1  ZINC000265724350    0.0900
     26 H26       -10.8659   -0.3478   51.6245 H       1  ZINC000265724350    0.0600
     27 H27       -11.1287    0.2483   53.2809 H       1  ZINC000265724350    0.0700
     28 H28        -9.7530    2.2401   51.8260 H       1  ZINC000265724350    0.4200
     29 H29        -8.1694    3.7315   52.5970 H       1  ZINC000265724350    0.1800
     30 H30        -5.7849    4.8872   52.1349 H       1  ZINC000265724350    0.1700
     31 H31        -3.2808    1.0031   51.5419 H       1  ZINC000265724350    0.4100
     32 H32        -1.0715    2.8987   51.8023 H       1  ZINC000265724350    0.0800
     33 H33        -0.9272    1.1440   51.5412 H       1  ZINC000265724350    0.0700
     34 H34         0.6410    3.2862   50.0178 H       1  ZINC000265724350    0.0500
     35 H35         0.7685    1.5304   49.7543 H       1  ZINC000265724350    0.0600
     36 H36         0.3955    2.6104   48.3895 H       1  ZINC000265724350    0.0700
     37 H37        -1.2284    0.2043   49.1965 H       1  ZINC000265724350    0.0800
     38 H38        -2.8476    0.9433   49.2193 H       1  ZINC000265724350    0.0400
     39 H39        -3.7588    1.6207   47.1935 H       1  ZINC000265724350    0.0400
     40 H40        -2.8788    3.1105   47.6145 H       1  ZINC000265724350    0.0900
     41 H41        -3.5233    3.0412   45.1970 H       1  ZINC000265724350    0.1000
     42 H42        -1.7578    3.0985   45.4230 H       1  ZINC000265724350    0.0600
     43 H43        -1.4000   -0.4607   44.6816 H       1  ZINC000265724350    0.1000
     44 H44        -0.4899    1.0072   45.1152 H       1  ZINC000265724350    0.0600
     45 H45        -0.7256   -0.4408   47.0919 H       1  ZINC000265724350    0.0900
     46 H46        -2.4943   -0.4649   46.8865 H       1  ZINC000265724350    0.0400
@<TRIPOS>BOND
     1     1     2    1
     2     1    25    1
     3     1    26    1
     4     1    27    1
     5     2     3   am
     6     2    28    1
     7     3     4    2
     8     3     5    2
     9     3     6    1
    10     6    24    1
    11     6     7    2
    12     7     8    1
    13     7    29    1
    14     8     9    2
    15     8    30    1
    16     9    10    1
    17     9    24    1
    18    10    11    2
    19    10    12   am
    20    12    13    1
    21    12    31    1
    22    13    14    1
    23    13    32    1
    24    13    33    1
    25    14    15    1
    26    14    16    1
    27    14    17    1
    28    16    34    1
    29    16    35    1
    30    16    36    1
    31    17    18    1
    32    17    37    1
    33    17    38    1
    34    18    23    1
    35    18    19    1
    36    19    20    1
    37    19    39    1
    38    19    40    1
    39    20    21    1
    40    20    41    1
    41    20    42    1
    42    21    22    1
    43    22    23    1
    44    22    43    1
    45    22    44    1
    46    23    45    1
    47    23    46    1
@<TRIPOS>SUBSTRUCTURE
     1 ZINC000265724350        1 TEMP              0 ****  ****    0 ROOT


##########                                Name:    ZINC000550952205
##########                DOCK_Rotatable_Bonds:                   7
##########                         Heavy_Atoms:                  28
##########                    Molecular_Weight:             407.484
##########                DOCK_Rotatable_Bonds:                   7
##########                       Formal_Charge:        -2.68221e-07
##########                     HBond_Acceptors:                   8
##########                        HBond_Donors:                   2
##########                         Heavy_Atoms:                  28
##########                          Grid_Score:          -30.704235
##########                     Grid_vdw_energy:          -31.492186
##########                      Grid_es_energy:            0.787951
##########           Internal_energy_repulsive:            6.041095

@<TRIPOS>MOLECULE
ZINC000550952205
 51 54 1 0 0
SMALL
USER_CHARGES


@<TRIPOS>ATOM
      1 O1         -4.6693    3.0991   56.6263 O.2     1  ZINC000550952205   -0.5100
      2 C2         -5.3361    2.5945   55.7468 C.2     1  ZINC000550952205    0.5100
      3 N3         -6.4689    1.9326   56.0555 N.am    1  ZINC000550952205   -0.7000
      4 C4         -6.8920    1.8172   57.4534 C.3     1  ZINC000550952205    0.1200
      5 C5         -7.7951    0.5926   57.6135 C.3     1  ZINC000550952205   -0.0900
      6 H6         -7.3359   -0.2673   57.1256 H       1  ZINC000550952205    0.1000
      7 C7         -7.9929    0.2980   59.0758 C.3     1  ZINC000550952205   -0.1300
      8 C8         -8.1180   -1.2107   59.3615 C.3     1  ZINC000550952205   -0.1200
      9 C9         -8.9876   -1.9453   58.3234 C.3     1  ZINC000550952205   -0.1300
     10 C10       -10.2186   -1.1656   57.9483 C.3     1  ZINC000550952205   -0.1500
     11 C11        -9.9093   -0.3408   56.6822 C.3     1  ZINC000550952205    0.3000
     12 F12        -9.1524   -1.1247   55.8048 F       1  ZINC000550952205   -0.2000
     13 F13       -11.1141    0.0012   56.0588 F       1  ZINC000550952205   -0.2000
     14 C14        -9.1706    0.8764   56.9762 C.3     1  ZINC000550952205   -0.1700
     15 C15        -4.9048    2.7120   54.3220 C.2     1  ZINC000550952205    0.5100
     16 O16        -3.9074    3.3436   54.0400 O.2     1  ZINC000550952205   -0.4900
     17 N17        -5.6230    2.1166   53.3493 N.am    1  ZINC000550952205   -0.6400
     18 C18        -5.2193    2.2266   52.0155 C.ar    1  ZINC000550952205    0.1500
     19 C19        -6.0492    2.8484   51.0840 C.ar    1  ZINC000550952205   -0.1200
     20 C20        -5.6693    2.9629   49.7823 C.ar    1  ZINC000550952205   -0.0400
     21 C21        -4.4273    2.4537   49.3511 C.ar    1  ZINC000550952205    0.0800
     22 N22        -3.8740    2.4657   48.1230 N.2     1  ZINC000550952205   -0.4700
     23 C23        -2.7199    1.9328   47.9822 C.2     1  ZINC000550952205    0.1200
     24 C24        -1.9700    1.8672   46.6766 C.3     1  ZINC000550952205   -0.1100
     25 C25        -0.4436    1.9560   46.7333 C.3     1  ZINC000550952205   -0.1500
     26 C26        -1.1210    0.6225   46.4113 C.3     1  ZINC000550952205   -0.1500
     27 S27        -2.1348    1.3061   49.4576 S.3     1  ZINC000550952205    0.1200
     28 C28        -3.5959    1.8303   50.2891 C.ar    1  ZINC000550952205   -0.1700
     29 C29        -3.9926    1.7236   51.6193 C.ar    1  ZINC000550952205   -0.0700
     30 H30        -7.0039    1.5326   55.3523 H       1  ZINC000550952205    0.4200
     31 H31        -6.0146    1.7074   58.0908 H       1  ZINC000550952205    0.0800
     32 H32        -7.4409    2.7136   57.7420 H       1  ZINC000550952205    0.0800
     33 H33        -7.1436    0.6933   59.6332 H       1  ZINC000550952205    0.0700
     34 H34        -8.8995    0.7979   59.4168 H       1  ZINC000550952205    0.0700
     35 H35        -7.1214   -1.6525   59.3610 H       1  ZINC000550952205    0.0700
     36 H36        -8.5595   -1.3461   60.3489 H       1  ZINC000550952205    0.0700
     37 H37        -8.3939   -2.1200   57.4262 H       1  ZINC000550952205    0.0800
     38 H38        -9.2916   -2.9076   58.7356 H       1  ZINC000550952205    0.0700
     39 H39       -11.0400   -1.8530   57.7460 H       1  ZINC000550952205    0.0900
     40 H40       -10.4905   -0.4958   58.7642 H       1  ZINC000550952205    0.1000
     41 H41        -9.7545    1.4857   57.6660 H       1  ZINC000550952205    0.1000
     42 H42        -9.0267    1.4341   56.0507 H       1  ZINC000550952205    0.1000
     43 H43        -6.4199    1.6117   53.5747 H       1  ZINC000550952205    0.4300
     44 H44        -7.0040    3.2433   51.3986 H       1  ZINC000550952205    0.1400
     45 H45        -6.3247    3.4473   49.0736 H       1  ZINC000550952205    0.1400
     46 H46        -2.4699    2.3267   45.8238 H       1  ZINC000550952205    0.1300
     47 H47         0.0610    2.4741   45.9178 H       1  ZINC000550952205    0.1000
     48 H48         0.0182    2.0618   47.7150 H       1  ZINC000550952205    0.1100
     49 H49        -1.1047   -0.1492   47.1810 H       1  ZINC000550952205    0.1000
     50 H50        -1.0619    0.2631   45.3838 H       1  ZINC000550952205    0.1100
     51 H51        -3.3452    1.2466   52.3401 H       1  ZINC000550952205    0.1400
@<TRIPOS>BOND
     1     1     2    2
     2     2     3   am
     3     2    15    1
     4     3     4    1
     5     3    30    1
     6     4     5    1
     7     4    31    1
     8     4    32    1
     9     5     6    1
    10     5    14    1
    11     5     7    1
    12     7     8    1
    13     7    33    1
    14     7    34    1
    15     8     9    1
    16     8    35    1
    17     8    36    1
    18     9    10    1
    19     9    37    1
    20     9    38    1
    21    10    11    1
    22    10    39    1
    23    10    40    1
    24    11    12    1
    25    11    13    1
    26    11    14    1
    27    14    41    1
    28    14    42    1
    29    15    16    2
    30    15    17   am
    31    17    18    1
    32    17    43    1
    33    18    29   ar
    34    18    19   ar
    35    19    20   ar
    36    19    44    1
    37    20    21   ar
    38    20    45    1
    39    21    28   ar
    40    21    22    1
    41    22    23    2
    42    23    24    1
    43    23    27    1
    44    24    26    1
    45    24    25    1
    46    24    46    1
    47    25    26    1
    48    25    47    1
    49    25    48    1
    50    26    49    1
    51    26    50    1
    52    27    28    1
    53    28    29   ar
    54    29    51    1
@<TRIPOS>SUBSTRUCTURE
     1 ZINC000550952205        1 TEMP              0 ****  ****    0 ROOT


##########                                Name:    ZINC000807524472
##########                DOCK_Rotatable_Bonds:                   9
##########                         Heavy_Atoms:                  28
##########                    Molecular_Weight:             410.534
##########                DOCK_Rotatable_Bonds:                   9
##########                       Formal_Charge:           0.0200006
##########                     HBond_Acceptors:                   8
##########                        HBond_Donors:                   0
##########                         Heavy_Atoms:                  28
##########                          Grid_Score:          -30.695599
##########                     Grid_vdw_energy:          -31.577606
##########                      Grid_es_energy:            0.882008
##########           Internal_energy_repulsive:           15.966758

@<TRIPOS>MOLECULE
ZINC000807524472
 58 60 1 0 0
SMALL
USER_CHARGES


@<TRIPOS>ATOM
      1 C1        -10.0743    0.1634   53.2520 C.3     1  ZINC000807524472   -0.1500
      2 C2         -8.5849    0.0588   53.5862 C.3     1  ZINC000807524472    0.0600
      3 O3         -7.8445    0.9452   52.7448 O.3     1  ZINC000807524472   -0.3800
      4 C4         -7.9579    0.6534   51.3505 C.3     1  ZINC000807524472    0.0600
      5 C5         -7.1366    1.6653   50.5491 C.3     1  ZINC000807524472    0.0700
      6 O6         -5.7314    1.5231   50.8856 O.3     1  ZINC000807524472   -0.3500
      7 C7         -4.8597    2.3022   50.2152 C.2     1  ZINC000807524472    0.5000
      8 O8         -5.2671    3.1152   49.4091 O.2     1  ZINC000807524472   -0.4600
      9 C9         -3.4134    2.1684   50.4596 C.ar    1  ZINC000807524472   -0.1200
     10 C10        -2.5983    1.5267   49.5230 C.ar    1  ZINC000807524472    0.0400
     11 C11        -1.2462    1.4054   49.7575 C.ar    1  ZINC000807524472   -0.7000
     12 S12        -0.2210    0.5964   48.5746 S.o2    1  ZINC000807524472    2.6900
     13 O13         1.1207    0.8258   48.9827 O.2     1  ZINC000807524472   -0.9500
     14 O14        -0.7666   -0.7030   48.3927 O.2     1  ZINC000807524472   -0.9500
     15 N15        -0.4139    1.3903   47.1342 N.am    1  ZINC000807524472   -0.9900
     16 C16        -0.9257    0.6833   45.9524 C.3     1  ZINC000807524472    0.1200
     17 C17        -2.1278    1.4546   45.3984 C.3     1  ZINC000807524472   -0.1400
     18 C18        -1.7200    2.9060   45.1349 C.3     1  ZINC000807524472   -0.1200
     19 C19        -1.2881    3.5627   46.4480 C.3     1  ZINC000807524472   -0.1400
     20 C20        -0.0822    2.8168   47.0154 C.3     1  ZINC000807524472    0.1200
     21 C21        -0.6880    1.9164   50.9184 C.ar    1  ZINC000807524472    0.0200
     22 C22        -1.4789    2.5523   51.8533 C.ar    1  ZINC000807524472   -0.1800
     23 C23        -2.8435    2.6899   51.6326 C.ar    1  ZINC000807524472    0.2000
     24 N24        -3.6415    3.3296   52.5714 N.3     1  ZINC000807524472   -0.4800
     25 C25        -3.5279    2.6762   53.9004 C.3     1  ZINC000807524472    0.0400
     26 C26        -4.0157    3.7743   54.8784 C.3     1  ZINC000807524472   -0.1200
     27 C27        -3.4497    5.0701   54.2534 C.3     1  ZINC000807524472   -0.1300
     28 C28        -3.2062    4.7289   52.7716 C.3     1  ZINC000807524472    0.0400
     29 H29       -10.2325   -0.1091   52.2086 H       1  ZINC000807524472    0.0600
     30 H30       -10.6390   -0.5126   53.8939 H       1  ZINC000807524472    0.0700
     31 H31       -10.4123    1.1867   53.4155 H       1  ZINC000807524472    0.0700
     32 H32        -8.4266    0.3314   54.6297 H       1  ZINC000807524472    0.0500
     33 H33        -8.2468   -0.9645   53.4228 H       1  ZINC000807524472    0.0500
     34 H34        -7.5835   -0.3521   51.1581 H       1  ZINC000807524472    0.0600
     35 H35        -9.0040    0.7152   51.0503 H       1  ZINC000807524472    0.0700
     36 H36        -7.2753    1.4832   49.4834 H       1  ZINC000807524472    0.0900
     37 H37        -7.4678    2.6752   50.7913 H       1  ZINC000807524472    0.0800
     38 H38        -3.0280    1.1262   48.6167 H       1  ZINC000807524472    0.1600
     39 H39        -0.1455    0.6282   45.1932 H       1  ZINC000807524472    0.0800
     40 H40        -1.2357   -0.3230   46.2344 H       1  ZINC000807524472    0.0900
     41 H41        -2.4574    0.9945   44.4669 H       1  ZINC000807524472    0.0800
     42 H42        -2.9408    1.4312   46.1240 H       1  ZINC000807524472    0.0700
     43 H43        -0.8905    2.9275   44.4281 H       1  ZINC000807524472    0.0700
     44 H44        -2.5667    3.4510   44.7175 H       1  ZINC000807524472    0.0700
     45 H45        -1.0201    4.6030   46.2635 H       1  ZINC000807524472    0.0800
     46 H46        -2.1091    3.5195   47.1637 H       1  ZINC000807524472    0.0700
     47 H47         0.1668    3.2184   47.9976 H       1  ZINC000807524472    0.0900
     48 H48         0.7685    2.9334   46.3442 H       1  ZINC000807524472    0.0800
     49 H49         0.3732    1.8160   51.0927 H       1  ZINC000807524472    0.1500
     50 H50        -1.0359    2.9474   52.7556 H       1  ZINC000807524472    0.1400
     51 H51        -4.1727    1.7990   53.9542 H       1  ZINC000807524472    0.0900
     52 H52        -2.4925    2.4072   54.1095 H       1  ZINC000807524472    0.0500
     53 H53        -5.1048    3.8057   54.9109 H       1  ZINC000807524472    0.0800
     54 H54        -3.6035    3.6146   55.8746 H       1  ZINC000807524472    0.0800
     55 H55        -4.1737    5.8801   54.3411 H       1  ZINC000807524472    0.0800
     56 H56        -2.5125    5.3454   54.7372 H       1  ZINC000807524472    0.0700
     57 H57        -2.1459    4.8250   52.5378 H       1  ZINC000807524472    0.0500
     58 H58        -3.7911    5.3942   52.1365 H       1  ZINC000807524472    0.0900
@<TRIPOS>BOND
     1     1     2    1
     2     1    29    1
     3     1    30    1
     4     1    31    1
     5     2     3    1
     6     2    32    1
     7     2    33    1
     8     3     4    1
     9     4     5    1
    10     4    34    1
    11     4    35    1
    12     5     6    1
    13     5    36    1
    14     5    37    1
    15     6     7    1
    16     7     8    2
    17     7     9    1
    18     9    23   ar
    19     9    10   ar
    20    10    11   ar
    21    10    38    1
    22    11    12    1
    23    11    21   ar
    24    12    13    2
    25    12    14    2
    26    12    15   am
    27    15    20    1
    28    15    16    1
    29    16    17    1
    30    16    39    1
    31    16    40    1
    32    17    18    1
    33    17    41    1
    34    17    42    1
    35    18    19    1
    36    18    43    1
    37    18    44    1
    38    19    20    1
    39    19    45    1
    40    19    46    1
    41    20    47    1
    42    20    48    1
    43    21    22   ar
    44    21    49    1
    45    22    23   ar
    46    22    50    1
    47    23    24    1
    48    24    28    1
    49    24    25    1
    50    25    26    1
    51    25    51    1
    52    25    52    1
    53    26    27    1
    54    26    53    1
    55    26    54    1
    56    27    28    1
    57    27    55    1
    58    27    56    1
    59    28    57    1
    60    28    58    1
@<TRIPOS>SUBSTRUCTURE
     1 ZINC000807524472        1 TEMP              0 ****  ****    0 ROOT


##########                                Name:    ZINC001058079801
##########                DOCK_Rotatable_Bonds:                   7
##########                         Heavy_Atoms:                  24
##########                    Molecular_Weight:             349.457
##########                DOCK_Rotatable_Bonds:                   7
##########                       Formal_Charge:           0.0200001
##########                     HBond_Acceptors:                   8
##########                        HBond_Donors:                   0
##########                         Heavy_Atoms:                  24
##########                          Grid_Score:          -30.692984
##########                     Grid_vdw_energy:          -31.309755
##########                      Grid_es_energy:            0.616772
##########           Internal_energy_repulsive:           15.527576

@<TRIPOS>MOLECULE
ZINC001058079801
 47 49 1 0 0
SMALL
USER_CHARGES


@<TRIPOS>ATOM
      1 C1        -10.8891   -1.8461   57.8715 C.3     1  ZINC001058079801   -0.1500
      2 C2        -11.2651   -0.9631   56.6798 C.3     1  ZINC001058079801   -0.1200
      3 C3        -11.3335   -1.8184   55.4130 C.3     1  ZINC001058079801   -0.0300
      4 C4        -11.2917   -0.9244   54.2005 C.2     1  ZINC001058079801    0.2900
      5 N5        -12.3868   -0.5383   53.6130 N.2     1  ZINC001058079801   -0.4800
      6 S6        -11.8934    0.4391   52.3131 S.3     1  ZINC001058079801    0.1900
      7 C7        -10.2110    0.2674   52.6429 C.2     1  ZINC001058079801    0.2700
      8 N8         -9.1549    0.8252   51.9454 N.3     1  ZINC001058079801   -0.4300
      9 C9         -8.0868   -0.1596   51.7313 C.3     1  ZINC001058079801    0.0700
     10 C10        -7.0043    0.4466   50.8354 C.3     1  ZINC001058079801   -0.1300
     11 C11        -6.4393    1.7028   51.5044 C.3     1  ZINC001058079801    0.1300
     12 N12        -5.4436    2.3201   50.6248 N.am    1  ZINC001058079801   -0.6100
     13 C13        -5.8728    3.0318   49.4185 C.3     1  ZINC001058079801    0.0700
     14 C14        -4.1326    2.2334   50.9256 C.2     1  ZINC001058079801    0.5200
     15 O15        -3.7774    1.6456   51.9252 O.2     1  ZINC001058079801   -0.5300
     16 C16        -3.1083    2.8670   50.0200 C.3     1  ZINC001058079801   -0.0600
     17 C17        -2.6560    1.8618   48.9924 C.2     1  ZINC001058079801   -0.1900
     18 C18        -3.0454    1.7583   47.6992 C.2     1  ZINC001058079801   -0.0400
     19 O19        -2.3754    0.7183   47.1833 O.3     1  ZINC001058079801    0.1000
     20 N20        -1.6503    0.2054   48.0038 N.2     1  ZINC001058079801   -0.3600
     21 C21        -1.7224    0.8123   49.1532 C.2     1  ZINC001058079801    0.0000
     22 C22        -7.5797    2.6920   51.7602 C.3     1  ZINC001058079801   -0.1200
     23 C23        -8.6456    2.0207   52.6293 C.3     1  ZINC001058079801    0.0400
     24 N24       -10.1496   -0.5058   53.7065 N.2     1  ZINC001058079801   -0.5300
     25 H25       -10.8403   -1.2368   58.7740 H       1  ZINC001058079801    0.0600
     26 H26       -11.6415   -2.6244   57.9987 H       1  ZINC001058079801    0.0600
     27 H27        -9.9176   -2.3060   57.6907 H       1  ZINC001058079801    0.0600
     28 H28       -12.2366   -0.5032   56.8606 H       1  ZINC001058079801    0.0700
     29 H29       -10.5126   -0.1848   56.5526 H       1  ZINC001058079801    0.0700
     30 H30       -10.4847   -2.5019   55.3898 H       1  ZINC001058079801    0.1000
     31 H31       -12.2611   -2.3907   55.4106 H       1  ZINC001058079801    0.0900
     32 H32        -7.6507   -0.4368   52.6911 H       1  ZINC001058079801    0.0600
     33 H33        -8.5011   -1.0461   51.2513 H       1  ZINC001058079801    0.1000
     34 H34        -6.2041   -0.2791   50.6895 H       1  ZINC001058079801    0.0800
     35 H35        -7.4366    0.7114   49.8705 H       1  ZINC001058079801    0.0800
     36 H36        -5.9714    1.4322   52.4509 H       1  ZINC001058079801    0.1000
     37 H37        -6.0450    4.0812   49.6575 H       1  ZINC001058079801    0.0600
     38 H38        -5.0974    2.9553   48.6562 H       1  ZINC001058079801    0.0800
     39 H39        -6.7954    2.5884   49.0439 H       1  ZINC001058079801    0.0800
     40 H40        -3.5505    3.7270   49.5170 H       1  ZINC001058079801    0.1100
     41 H41        -2.2523    3.1925   50.6111 H       1  ZINC001058079801    0.1100
     42 H42        -3.7554    2.3891   47.1853 H       1  ZINC001058079801    0.2200
     43 H43        -1.1815    0.5598   50.0532 H       1  ZINC001058079801    0.1900
     44 H44        -7.1907    3.5706   52.2750 H       1  ZINC001058079801    0.0900
     45 H45        -8.0211    2.9921   50.8099 H       1  ZINC001058079801    0.0800
     46 H46        -9.4657    2.7178   52.8014 H       1  ZINC001058079801    0.1000
     47 H47        -8.2068    1.7333   53.5848 H       1  ZINC001058079801    0.0700
@<TRIPOS>BOND
     1     1     2    1
     2     1    25    1
     3     1    26    1
     4     1    27    1
     5     2     3    1
     6     2    28    1
     7     2    29    1
     8     3     4    1
     9     3    30    1
    10     3    31    1
    11     4    24    1
    12     4     5    2
    13     5     6    1
    14     6     7    1
    15     7     8    1
    16     7    24    2
    17     8    23    1
    18     8     9    1
    19     9    10    1
    20     9    32    1
    21     9    33    1
    22    10    11    1
    23    10    34    1
    24    10    35    1
    25    11    12    1
    26    11    22    1
    27    11    36    1
    28    12    13    1
    29    12    14   am
    30    13    37    1
    31    13    38    1
    32    13    39    1
    33    14    15    2
    34    14    16    1
    35    16    17    1
    36    16    40    1
    37    16    41    1
    38    17    21    1
    39    17    18    2
    40    18    19    1
    41    18    42    1
    42    19    20    1
    43    20    21    2
    44    21    43    1
    45    22    23    1
    46    22    44    1
    47    22    45    1
    48    23    46    1
    49    23    47    1
@<TRIPOS>SUBSTRUCTURE
     1 ZINC001058079801        1 TEMP              0 ****  ****    0 ROOT


##########                                Name:    ZINC001757264545
##########                DOCK_Rotatable_Bonds:                  11
##########                         Heavy_Atoms:                  25
##########                    Molecular_Weight:             344.497
##########                DOCK_Rotatable_Bonds:                  11
##########                       Formal_Charge:          0.00999946
##########                     HBond_Acceptors:                   4
##########                        HBond_Donors:                   2
##########                         Heavy_Atoms:                  25
##########                          Grid_Score:          -30.685402
##########                     Grid_vdw_energy:          -29.804070
##########                      Grid_es_energy:           -0.881332
##########           Internal_energy_repulsive:            8.478316

@<TRIPOS>MOLECULE
ZINC001757264545
 57 57 1 0 0
SMALL
USER_CHARGES


@<TRIPOS>ATOM
      1 C1         -5.3342    3.7913   56.2403 C.1     1  ZINC001757264545   -0.2100
      2 C2         -5.9804    3.2599   57.0639 C.1     1  ZINC001757264545   -0.1900
      3 C3         -6.7906    2.5935   58.0965 C.3     1  ZINC001757264545   -0.0100
      4 C4         -6.8465    1.0915   57.8103 C.3     1  ZINC001757264545   -0.1200
      5 C5         -7.6722    0.3962   58.8945 C.3     1  ZINC001757264545   -0.1200
      6 C6         -7.2665   -1.0766   58.9786 C.3     1  ZINC001757264545   -0.1000
      7 C7         -7.8490   -1.8351   57.7843 C.3     1  ZINC001757264545   -0.1400
      8 C8         -9.1306   -2.5126   58.1961 C.2     1  ZINC001757264545    0.5100
      9 O9         -9.1371   -3.7005   58.4409 O.2     1  ZINC001757264545   -0.5400
     10 N10       -10.2697   -1.7985   58.2922 N.am    1  ZINC001757264545   -0.7300
     11 C11       -11.5151   -2.4568   58.6941 C.3     1  ZINC001757264545    0.1400
     12 H12       -11.2834   -3.3448   59.2821 H       1  ZINC001757264545    0.1000
     13 C13       -12.3032   -2.8623   57.4470 C.3     1  ZINC001757264545   -0.1300
     14 C14       -13.6040   -3.5497   57.8668 C.3     1  ZINC001757264545   -0.1200
     15 C15       -14.4420   -2.5852   58.7084 C.3     1  ZINC001757264545   -0.1200
     16 C16       -13.6540   -2.1797   59.9555 C.3     1  ZINC001757264545   -0.1300
     17 C17       -12.3532   -1.4922   59.5357 C.3     1  ZINC001757264545    0.1400
     18 H18       -12.5849   -0.6042   58.9477 H       1  ZINC001757264545    0.1000
     19 N19       -11.5986   -1.1040   60.7299 N.am    1  ZINC001757264545   -0.7200
     20 C20       -11.7139    0.1449   61.2234 C.2     1  ZINC001757264545    0.6400
     21 O21       -12.4455    0.9490   60.6783 O.2     1  ZINC001757264545   -0.5200
     22 C22       -10.9750    0.5249   62.3897 C.1     1  ZINC001757264545   -0.2300
     23 C23       -10.3692    0.8365   63.3458 C.1     1  ZINC001757264545   -0.0500
     24 C24        -9.6096    1.2272   64.5447 C.3     1  ZINC001757264545    0.0300
     25 C25        -8.4706    2.1665   64.1431 C.3     1  ZINC001757264545   -0.1400
     26 C26       -10.5392    1.9434   65.5264 C.3     1  ZINC001757264545   -0.1400
     27 C27        -9.0295   -0.0222   65.2105 C.3     1  ZINC001757264545   -0.1400
     28 H28        -4.7563    4.2666   55.5037 H       1  ZINC001757264545    0.2200
     29 H29        -7.8006    3.0031   58.0863 H       1  ZINC001757264545    0.0900
     30 H30        -6.3406    2.7605   59.0752 H       1  ZINC001757264545    0.0900
     31 H31        -5.8354    0.6845   57.8067 H       1  ZINC001757264545    0.0700
     32 H32        -7.3092    0.9239   56.8378 H       1  ZINC001757264545    0.0700
     33 H33        -8.7313    0.4677   58.6466 H       1  ZINC001757264545    0.0700
     34 H34        -7.4905    0.8785   59.8550 H       1  ZINC001757264545    0.0700
     35 H35        -7.6495   -1.5068   59.9041 H       1  ZINC001757264545    0.0700
     36 H36        -6.1795   -1.1555   58.9640 H       1  ZINC001757264545    0.0700
     37 H37        -7.1339   -2.5852   57.4464 H       1  ZINC001757264545    0.0900
     38 H38        -8.0520   -1.1354   56.9736 H       1  ZINC001757264545    0.0900
     39 H39       -10.2647   -0.8487   58.0952 H       1  ZINC001757264545    0.4000
     40 H40       -12.5349   -1.9742   56.8589 H       1  ZINC001757264545    0.0700
     41 H41       -11.7062   -3.5495   56.8474 H       1  ZINC001757264545    0.0800
     42 H42       -14.1655   -3.8386   56.9783 H       1  ZINC001757264545    0.0700
     43 H43       -13.3723   -4.4378   58.4548 H       1  ZINC001757264545    0.0700
     44 H44       -15.3687   -3.0750   59.0074 H       1  ZINC001757264545    0.0700
     45 H45       -14.6738   -1.6972   58.1204 H       1  ZINC001757264545    0.0700
     46 H46       -13.4222   -3.0677   60.5436 H       1  ZINC001757264545    0.0700
     47 H47       -14.2510   -1.4925   60.5551 H       1  ZINC001757264545    0.0800
     48 H48       -11.0159   -1.7457   61.1653 H       1  ZINC001757264545    0.4000
     49 H49        -8.8839    3.0567   63.6687 H       1  ZINC001757264545    0.0600
     50 H50        -7.9081    2.4558   65.0308 H       1  ZINC001757264545    0.0700
     51 H51        -7.8084    1.6563   63.4436 H       1  ZINC001757264545    0.0600
     52 H52       -11.3506    1.2742   65.8125 H       1  ZINC001757264545    0.0600
     53 H53        -9.9767    2.2327   66.4141 H       1  ZINC001757264545    0.0700
     54 H54       -10.9524    2.8335   65.0520 H       1  ZINC001757264545    0.0600
     55 H55        -8.3673   -0.5325   64.5110 H       1  ZINC001757264545    0.0600
     56 H56        -8.4671    0.2671   66.0983 H       1  ZINC001757264545    0.0700
     57 H57        -9.8410   -0.6914   65.4965 H       1  ZINC001757264545    0.0600
@<TRIPOS>BOND
     1     1     2    3
     2     1    28    1
     3     2     3    1
     4     3     4    1
     5     3    29    1
     6     3    30    1
     7     4     5    1
     8     4    31    1
     9     4    32    1
    10     5     6    1
    11     5    33    1
    12     5    34    1
    13     6     7    1
    14     6    35    1
    15     6    36    1
    16     7     8    1
    17     7    37    1
    18     7    38    1
    19     8     9    2
    20     8    10   am
    21    10    11    1
    22    10    39    1
    23    11    12    1
    24    11    17    1
    25    11    13    1
    26    13    14    1
    27    13    40    1
    28    13    41    1
    29    14    15    1
    30    14    42    1
    31    14    43    1
    32    15    16    1
    33    15    44    1
    34    15    45    1
    35    16    17    1
    36    16    46    1
    37    16    47    1
    38    17    18    1
    39    17    19    1
    40    19    20   am
    41    19    48    1
    42    20    21    2
    43    20    22    1
    44    22    23    3
    45    23    24    1
    46    24    25    1
    47    24    26    1
    48    24    27    1
    49    25    49    1
    50    25    50    1
    51    25    51    1
    52    26    52    1
    53    26    53    1
    54    26    54    1
    55    27    55    1
    56    27    56    1
    57    27    57    1
@<TRIPOS>SUBSTRUCTURE
     1 ZINC001757264545        1 TEMP              0 ****  ****    0 ROOT


##########                                Name:    ZINC000805177769
##########                DOCK_Rotatable_Bonds:                  10
##########                         Heavy_Atoms:                  30
##########                    Molecular_Weight:             417.548
##########                DOCK_Rotatable_Bonds:                  10
##########                       Formal_Charge:           0.0199995
##########                     HBond_Acceptors:                   7
##########                        HBond_Donors:                   1
##########                         Heavy_Atoms:                  30
##########                          Grid_Score:          -30.668262
##########                     Grid_vdw_energy:          -29.857790
##########                      Grid_es_energy:           -0.810473
##########           Internal_energy_repulsive:           31.567240

@<TRIPOS>MOLECULE
ZINC000805177769
 65 66 1 0 0
SMALL
USER_CHARGES


@<TRIPOS>ATOM
      1 C1         -8.6371    0.9281   60.6642 C.3     1  ZINC000805177769   -0.1200
      2 C2         -8.9484    0.5649   59.2350 C.ar    1  ZINC000805177769   -0.0800
      3 C3         -8.0465   -0.1803   58.4993 C.ar    1  ZINC000805177769   -0.1200
      4 C4         -8.3320   -0.5135   57.1882 C.ar    1  ZINC000805177769   -0.1100
      5 C5         -9.5196   -0.1016   56.6134 C.ar    1  ZINC000805177769   -0.0900
      6 C6         -9.8306   -0.4644   55.1842 C.3     1  ZINC000805177769   -0.0900
      7 C7         -9.4543    0.7022   54.2685 C.3     1  ZINC000805177769    0.1500
      8 H8         -9.8569    1.6292   54.6768 H       1  ZINC000805177769    0.1000
      9 C9        -10.0364    0.4641   52.8738 C.3     1  ZINC000805177769   -0.1700
     10 N10        -7.9954    0.8013   54.1784 N.am    1  ZINC000805177769   -0.6900
     11 C11        -7.4215    1.9549   53.7831 C.2     1  ZINC000805177769    0.5100
     12 O12        -8.1132    2.9110   53.5003 O.2     1  ZINC000805177769   -0.5100
     13 C13        -5.9332    2.0566   53.6929 C.2     1  ZINC000805177769    0.5200
     14 O14        -5.2659    2.1049   54.7052 O.2     1  ZINC000805177769   -0.5200
     15 N15        -5.3322    2.0945   52.4872 N.am    1  ZINC000805177769   -0.5900
     16 C16        -6.0163    2.0443   51.1868 C.3     1  ZINC000805177769    0.1100
     17 C17        -4.9312    2.1438   50.0940 C.3     1  ZINC000805177769   -0.1500
     18 C18        -3.7471    2.8136   50.8402 C.3     1  ZINC000805177769    0.1500
     19 H19        -3.8694    3.8962   50.8749 H       1  ZINC000805177769    0.1200
     20 N20        -2.4673    2.4519   50.2256 N.am    1  ZINC000805177769   -0.5900
     21 C21        -1.4390    1.7745   51.0193 C.3     1  ZINC000805177769    0.0800
     22 C22        -2.2359    2.7426   48.9301 C.2     1  ZINC000805177769    0.6600
     23 O23        -3.0893    3.3032   48.2713 O.2     1  ZINC000805177769   -0.5600
     24 O24        -1.0591    2.4117   48.3657 O.3     1  ZINC000805177769   -0.3600
     25 C25        -1.1109    1.6223   47.1481 C.3     1  ZINC000805177769    0.1400
     26 C26        -1.4369    2.5336   45.9630 C.3     1  ZINC000805177769   -0.1800
     27 C27         0.2444    0.9511   46.9174 C.3     1  ZINC000805177769   -0.1400
     28 C28        -2.1948    0.5507   47.2807 C.3     1  ZINC000805177769   -0.1800
     29 C29        -3.8803    2.1997   52.2538 C.3     1  ZINC000805177769    0.0900
     30 C30       -10.4224    0.6426   57.3498 C.ar    1  ZINC000805177769   -0.0800
     31 C31       -11.7175    1.0913   56.7233 C.3     1  ZINC000805177769   -0.1200
     32 C32       -10.1387    0.9725   58.6618 C.ar    1  ZINC000805177769   -0.1200
     33 H33        -9.0124    0.1485   61.3272 H       1  ZINC000805177769    0.0700
     34 H34        -7.5583    1.0224   60.7884 H       1  ZINC000805177769    0.0700
     35 H35        -9.1156    1.8760   60.9106 H       1  ZINC000805177769    0.0700
     36 H36        -7.1185   -0.5022   58.9484 H       1  ZINC000805177769    0.1200
     37 H37        -7.6269   -1.0952   56.6130 H       1  ZINC000805177769    0.1200
     38 H38        -9.2586   -1.3478   54.9008 H       1  ZINC000805177769    0.0800
     39 H39       -10.8957   -0.6743   55.0861 H       1  ZINC000805177769    0.0900
     40 H40        -9.6338   -0.4629   52.4655 H       1  ZINC000805177769    0.0600
     41 H41       -11.1218    0.3904   52.9408 H       1  ZINC000805177769    0.0700
     42 H42        -9.7683    1.2952   52.2214 H       1  ZINC000805177769    0.0600
     43 H43        -7.4425    0.0367   54.4033 H       1  ZINC000805177769    0.4100
     44 H44        -6.5564    1.1026   51.0882 H       1  ZINC000805177769    0.0900
     45 H45        -6.7084    2.8818   51.0994 H       1  ZINC000805177769    0.0900
     46 H46        -4.6511    1.1527   49.7372 H       1  ZINC000805177769    0.0900
     47 H47        -5.2709    2.7701   49.2691 H       1  ZINC000805177769    0.0900
     48 H48        -1.5728    0.6955   50.9424 H       1  ZINC000805177769    0.0600
     49 H49        -0.4525    2.0459   50.6436 H       1  ZINC000805177769    0.0800
     50 H50        -1.5266    2.0780   52.0626 H       1  ZINC000805177769    0.0800
     51 H51        -0.6647    3.2971   45.8685 H       1  ZINC000805177769    0.0600
     52 H52        -1.4758    1.9411   45.0490 H       1  ZINC000805177769    0.0700
     53 H53        -2.4026    3.0119   46.1273 H       1  ZINC000805177769    0.0900
     54 H54         0.4768    0.3019   47.7617 H       1  ZINC000805177769    0.0700
     55 H55         0.2056    0.3586   46.0034 H       1  ZINC000805177769    0.0800
     56 H56         1.0167    1.7146   46.8229 H       1  ZINC000805177769    0.0700
     57 H57        -3.1604    1.0289   47.4449 H       1  ZINC000805177769    0.0900
     58 H58        -2.2336   -0.0419   46.3667 H       1  ZINC000805177769    0.0700
     59 H59        -1.9625   -0.0985   48.1249 H       1  ZINC000805177769    0.0600
     60 H60        -3.4197    2.8520   52.9956 H       1  ZINC000805177769    0.0900
     61 H61        -3.4243    1.2101   52.2822 H       1  ZINC000805177769    0.0800
     62 H62       -12.4835    0.3341   56.8906 H       1  ZINC000805177769    0.0700
     63 H63       -12.0323    2.0325   57.1741 H       1  ZINC000805177769    0.0700
     64 H64       -11.5734    1.2319   55.6521 H       1  ZINC000805177769    0.0700
     65 H65       -10.8439    1.5539   59.2371 H       1  ZINC000805177769    0.1200
@<TRIPOS>BOND
     1     1     2    1
     2     1    33    1
     3     1    34    1
     4     1    35    1
     5     2    32   ar
     6     2     3   ar
     7     3     4   ar
     8     3    36    1
     9     4     5   ar
    10     4    37    1
    11     5     6    1
    12     5    30   ar
    13     6     7    1
    14     6    38    1
    15     6    39    1
    16     7     8    1
    17     7     9    1
    18     7    10    1
    19     9    40    1
    20     9    41    1
    21     9    42    1
    22    10    11   am
    23    10    43    1
    24    11    12    2
    25    11    13    1
    26    13    14    2
    27    13    15   am
    28    15    29    1
    29    15    16    1
    30    16    17    1
    31    16    44    1
    32    16    45    1
    33    17    18    1
    34    17    46    1
    35    17    47    1
    36    18    19    1
    37    18    20    1
    38    18    29    1
    39    20    21    1
    40    20    22   am
    41    21    48    1
    42    21    49    1
    43    21    50    1
    44    22    23    2
    45    22    24    1
    46    24    25    1
    47    25    26    1
    48    25    27    1
    49    25    28    1
    50    26    51    1
    51    26    52    1
    52    26    53    1
    53    27    54    1
    54    27    55    1
    55    27    56    1
    56    28    57    1
    57    28    58    1
    58    28    59    1
    59    29    60    1
    60    29    61    1
    61    30    31    1
    62    30    32   ar
    63    31    62    1
    64    31    63    1
    65    31    64    1
    66    32    65    1
@<TRIPOS>SUBSTRUCTURE
     1 ZINC000805177769        1 TEMP              0 ****  ****    0 ROOT


##########                                Name:    ZINC000624498741
##########                DOCK_Rotatable_Bonds:                   7
##########                         Heavy_Atoms:                  27
##########                    Molecular_Weight:             379.339
##########                DOCK_Rotatable_Bonds:                   7
##########                       Formal_Charge:           0.0300003
##########                     HBond_Acceptors:                   9
##########                        HBond_Donors:                   0
##########                         Heavy_Atoms:                  27
##########                          Grid_Score:          -30.647850
##########                     Grid_vdw_energy:          -29.886084
##########                      Grid_es_energy:           -0.761767
##########           Internal_energy_repulsive:           11.557090

@<TRIPOS>MOLECULE
ZINC000624498741
 43 45 1 0 0
SMALL
USER_CHARGES


@<TRIPOS>ATOM
      1 C1         -6.0788    2.9970   51.4484 C.3     1  ZINC000624498741   -0.1100
      2 C2         -5.2858    2.9837   52.7299 C.ar    1  ZINC000624498741   -0.0900
      3 C3         -5.9368    2.8996   53.9408 C.ar    1  ZINC000624498741   -0.0400
      4 C4         -5.2008    2.8869   55.1281 C.ar    1  ZINC000624498741   -0.0500
      5 C5         -5.8947    2.7964   56.4283 C.2     1  ZINC000624498741    0.2300
      6 N6         -6.5310    1.7435   56.9123 N.2     1  ZINC000624498741   -0.4700
      7 C7         -6.9975    2.1251   58.1114 C.2     1  ZINC000624498741    0.1800
      8 C8         -7.7961    1.2762   59.0665 C.3     1  ZINC000624498741   -0.0300
      9 C9         -7.3755   -0.1876   58.9218 C.3     1  ZINC000624498741   -0.1300
     10 C10        -8.3733   -0.9185   58.0211 C.3     1  ZINC000624498741    0.0900
     11 N11        -8.2180   -2.3650   58.1931 N.am    1  ZINC000624498741   -0.5000
     12 C12        -6.9830   -2.8867   58.4065 C.2     1  ZINC000624498741    0.1300
     13 C13        -6.8144   -4.2200   58.5679 C.2     1  ZINC000624498741   -0.2300
     14 C14        -7.9227   -5.0769   58.5157 C.2     1  ZINC000624498741   -0.0200
     15 C15        -9.1628   -4.5508   58.3016 C.2     1  ZINC000624498741   -0.2400
     16 C16        -9.3026   -3.1615   58.1432 C.2     1  ZINC000624498741    0.5100
     17 O17       -10.4066   -2.6774   57.9511 O.2     1  ZINC000624498741   -0.5500
     18 N18        -6.6350    3.3596   58.3003 N.2     1  ZINC000624498741   -0.3700
     19 O19        -5.9974    3.7652   57.3517 O.3     1  ZINC000624498741    0.0900
     20 C20        -3.8067    2.9597   55.0820 C.ar    1  ZINC000624498741   -0.0200
     21 C21        -3.1631    3.0436   53.8667 C.ar    1  ZINC000624498741   -0.1900
     22 C22        -3.8984    3.0506   52.6880 C.ar    1  ZINC000624498741    0.1300
     23 O23        -3.2603    3.1335   51.4924 O.3     1  ZINC000624498741   -0.3000
     24 C24        -2.7324    1.9200   50.9532 C.3     1  ZINC000624498741    0.6000
     25 F25        -3.5484    0.8482   51.3306 F       1  ZINC000624498741   -0.1600
     26 F26        -2.6937    2.0078   49.5575 F       1  ZINC000624498741   -0.1300
     27 F27        -1.4382    1.7160   51.4437 F       1  ZINC000624498741   -0.1600
     28 H28        -6.2217    1.9744   51.0990 H       1  ZINC000624498741    0.0800
     29 H29        -7.0498    3.4590   51.6268 H       1  ZINC000624498741    0.0800
     30 H30        -5.5385    3.5670   50.6927 H       1  ZINC000624498741    0.0800
     31 H31        -7.0149    2.8439   53.9723 H       1  ZINC000624498741    0.1500
     32 H32        -7.6120    1.6078   60.0884 H       1  ZINC000624498741    0.1000
     33 H33        -8.8576    1.3735   58.8387 H       1  ZINC000624498741    0.1000
     34 H34        -6.3811   -0.2379   58.4780 H       1  ZINC000624498741    0.0800
     35 H35        -7.3593   -0.6599   59.9041 H       1  ZINC000624498741    0.0800
     36 H36        -9.3881   -0.6273   58.2919 H       1  ZINC000624498741    0.1100
     37 H37        -8.1848   -0.6540   56.9806 H       1  ZINC000624498741    0.1000
     38 H38        -6.1258   -2.2311   58.4477 H       1  ZINC000624498741    0.1600
     39 H39        -5.8268   -4.6234   58.7363 H       1  ZINC000624498741    0.1500
     40 H40        -7.7960   -6.1419   58.6432 H       1  ZINC000624498741    0.1400
     41 H41       -10.0287   -5.1949   58.2582 H       1  ZINC000624498741    0.1500
     42 H42        -3.2342    2.9506   55.9977 H       1  ZINC000624498741    0.1500
     43 H43        -2.0851    3.1002   53.8301 H       1  ZINC000624498741    0.1500
@<TRIPOS>BOND
     1     1     2    1
     2     1    28    1
     3     1    29    1
     4     1    30    1
     5     2    22   ar
     6     2     3   ar
     7     3     4   ar
     8     3    31    1
     9     4     5    1
    10     4    20   ar
    11     5    19    1
    12     5     6    2
    13     6     7    1
    14     7     8    1
    15     7    18    2
    16     8     9    1
    17     8    32    1
    18     8    33    1
    19     9    10    1
    20     9    34    1
    21     9    35    1
    22    10    11    1
    23    10    36    1
    24    10    37    1
    25    11    16   am
    26    11    12    1
    27    12    13    2
    28    12    38    1
    29    13    14    1
    30    13    39    1
    31    14    15    2
    32    14    40    1
    33    15    16    1
    34    15    41    1
    35    16    17    2
    36    18    19    1
    37    20    21   ar
    38    20    42    1
    39    21    22   ar
    40    21    43    1
    41    22    23    1
    42    23    24    1
    43    24    25    1
    44    24    26    1
    45    24    27    1
@<TRIPOS>SUBSTRUCTURE
     1 ZINC000624498741        1 TEMP              0 ****  ****    0 ROOT


##########                                Name:    ZINC000281257088
##########                DOCK_Rotatable_Bonds:                   8
##########                         Heavy_Atoms:                  27
##########                    Molecular_Weight:             395.541
##########                DOCK_Rotatable_Bonds:                   8
##########                       Formal_Charge:          -0.0200005
##########                     HBond_Acceptors:                   7
##########                        HBond_Donors:                   1
##########                         Heavy_Atoms:                  27
##########                          Grid_Score:          -30.645451
##########                     Grid_vdw_energy:          -29.185669
##########                      Grid_es_energy:           -1.459781
##########           Internal_energy_repulsive:           37.416473

@<TRIPOS>MOLECULE
ZINC000281257088
 57 58 1 0 0
SMALL
USER_CHARGES


@<TRIPOS>ATOM
      1 C1         -9.0490    1.1129   53.9606 C.3     1  ZINC000281257088   -0.0700
      2 C2         -7.7230    1.8188   54.0793 C.2     1  ZINC000281257088    0.1000
      3 N3         -6.9363    2.1458   53.0863 N.2     1  ZINC000281257088   -0.3000
      4 N4         -5.8069    2.7844   53.6145 N.pl3   1  ZINC000281257088   -0.3700
      5 C5         -4.6764    3.3114   52.8460 C.3     1  ZINC000281257088    0.1500
      6 C6         -3.6857    2.1820   52.5567 C.3     1  ZINC000281257088   -0.6400
      7 S7         -3.2327    2.2102   50.8004 S.o2    1  ZINC000281257088    2.4300
      8 C8         -1.4903    1.7089   50.8546 C.3     1  ZINC000281257088   -0.6500
      9 O9         -3.9731    1.2023   50.1257 O.2     1  ZINC000281257088   -0.9300
     10 O10        -3.3037    3.5513   50.3360 O.2     1  ZINC000281257088   -0.9300
     11 C11        -5.9443    2.8284   54.9563 C.2     1  ZINC000281257088    0.0900
     12 C12        -4.9631    3.4278   55.9306 C.3     1  ZINC000281257088   -0.1000
     13 C13        -7.1233    2.2430   55.2696 C.2     1  ZINC000281257088   -0.2300
     14 C14        -7.6865    2.0706   56.6567 C.3     1  ZINC000281257088    0.1400
     15 N15        -8.1530    0.6882   56.8275 N.3     1  ZINC000281257088   -0.6700
     16 C16        -7.8009    0.1742   58.1578 C.3     1  ZINC000281257088    0.1400
     17 H17        -6.7965    0.5059   58.4213 H       1  ZINC000281257088    0.0500
     18 C18        -7.8445   -1.3321   58.1422 C.ar    1  ZINC000281257088   -0.0800
     19 C19        -8.8221   -1.9872   57.4169 C.ar    1  ZINC000281257088   -0.0600
     20 C20        -8.8631   -3.3686   57.4018 C.ar    1  ZINC000281257088   -0.1600
     21 C21        -7.9242   -4.0963   58.1131 C.ar    1  ZINC000281257088    0.1000
     22 F22        -7.9629   -5.4466   58.0987 F       1  ZINC000281257088   -0.1400
     23 C23        -6.9452   -3.4390   58.8387 C.ar    1  ZINC000281257088   -0.1600
     24 C24        -6.9033   -2.0577   58.8485 C.ar    1  ZINC000281257088   -0.0900
     25 C25        -8.7996    0.7026   59.1895 C.3     1  ZINC000281257088   -0.0600
     26 C26        -8.3087    2.0458   59.7331 C.3     1  ZINC000281257088   -0.1400
     27 C27       -10.1663    0.8891   58.5274 C.3     1  ZINC000281257088   -0.1400
     28 C28        -8.9225   -0.2988   60.3397 C.3     1  ZINC000281257088   -0.1500
     29 H29        -9.8442    1.8499   53.8483 H       1  ZINC000281257088    0.0800
     30 H30        -9.0352    0.4576   53.0897 H       1  ZINC000281257088    0.0700
     31 H31        -9.2269    0.5205   54.8581 H       1  ZINC000281257088    0.0800
     32 H32        -5.0386    3.7268   51.9056 H       1  ZINC000281257088    0.1100
     33 H33        -4.1792    4.0927   53.4208 H       1  ZINC000281257088    0.1100
     34 H34        -2.7914    2.3186   53.1647 H       1  ZINC000281257088    0.1400
     35 H35        -4.1461    1.2240   52.7978 H       1  ZINC000281257088    0.1400
     36 H36        -1.4112    0.7176   51.3009 H       1  ZINC000281257088    0.1300
     37 H37        -1.0875    1.6848   49.8420 H       1  ZINC000281257088    0.1300
     38 H38        -0.9252    2.4230   51.4535 H       1  ZINC000281257088    0.1300
     39 H39        -5.2026    4.4796   56.0867 H       1  ZINC000281257088    0.0800
     40 H40        -5.0238    2.8965   56.8804 H       1  ZINC000281257088    0.0900
     41 H41        -3.9534    3.3407   55.5294 H       1  ZINC000281257088    0.0700
     42 H42        -6.9119    2.2862   57.3928 H       1  ZINC000281257088    0.0800
     43 H43        -8.5222    2.7561   56.7974 H       1  ZINC000281257088    0.0300
     44 H44        -9.1463    0.6189   56.6644 H       1  ZINC000281257088    0.3400
     45 H45        -9.5544   -1.4194   56.8621 H       1  ZINC000281257088    0.1400
     46 H46        -9.6274   -3.8802   56.8356 H       1  ZINC000281257088    0.1300
     47 H47        -6.2125   -4.0056   59.3942 H       1  ZINC000281257088    0.1300
     48 H48        -6.1395   -1.5448   59.4142 H       1  ZINC000281257088    0.1300
     49 H49        -8.2211    2.7593   58.9137 H       1  ZINC000281257088    0.0600
     50 H50        -9.0202    2.4223   60.4681 H       1  ZINC000281257088    0.0500
     51 H51        -7.3350    1.9130   60.2048 H       1  ZINC000281257088    0.0600
     52 H52       -10.5159   -0.0679   58.1401 H       1  ZINC000281257088    0.0500
     53 H53       -10.8777    1.2655   59.2624 H       1  ZINC000281257088    0.0600
     54 H54       -10.0786    1.6026   57.7080 H       1  ZINC000281257088    0.0600
     55 H55        -7.9678   -0.3732   60.8603 H       1  ZINC000281257088    0.0500
     56 H56        -9.6904    0.0394   61.0354 H       1  ZINC000281257088    0.0600
     57 H57        -9.1969   -1.2762   59.9426 H       1  ZINC000281257088    0.0600
@<TRIPOS>BOND
     1     1     2    1
     2     1    29    1
     3     1    30    1
     4     1    31    1
     5     2    13    1
     6     2     3    2
     7     3     4    1
     8     4     5    1
     9     4    11    1
    10     5     6    1
    11     5    32    1
    12     5    33    1
    13     6     7    1
    14     6    34    1
    15     6    35    1
    16     7     8    1
    17     7     9    2
    18     7    10    2
    19     8    36    1
    20     8    37    1
    21     8    38    1
    22    11    12    1
    23    11    13    2
    24    12    39    1
    25    12    40    1
    26    12    41    1
    27    13    14    1
    28    14    15    1
    29    14    42    1
    30    14    43    1
    31    15    16    1
    32    15    44    1
    33    16    17    1
    34    16    18    1
    35    16    25    1
    36    18    24   ar
    37    18    19   ar
    38    19    20   ar
    39    19    45    1
    40    20    21   ar
    41    20    46    1
    42    21    22    1
    43    21    23   ar
    44    23    24   ar
    45    23    47    1
    46    24    48    1
    47    25    26    1
    48    25    27    1
    49    25    28    1
    50    26    49    1
    51    26    50    1
    52    26    51    1
    53    27    52    1
    54    27    53    1
    55    27    54    1
    56    28    55    1
    57    28    56    1
    58    28    57    1
@<TRIPOS>SUBSTRUCTURE
     1 ZINC000281257088        1 TEMP              0 ****  ****    0 ROOT


##########                                Name:    ZINC000534890536
##########                DOCK_Rotatable_Bonds:                   6
##########                         Heavy_Atoms:                  30
##########                    Molecular_Weight:             411.476
##########                DOCK_Rotatable_Bonds:                   6
##########                       Formal_Charge:          0.00999957
##########                     HBond_Acceptors:                   7
##########                        HBond_Donors:                   1
##########                         Heavy_Atoms:                  30
##########                          Grid_Score:          -30.598368
##########                     Grid_vdw_energy:          -29.446363
##########                      Grid_es_energy:           -1.152005
##########           Internal_energy_repulsive:           16.196199

@<TRIPOS>MOLECULE
ZINC000534890536
 56 59 1 0 0
SMALL
USER_CHARGES


@<TRIPOS>ATOM
      1 C1        -13.3593   -0.0892   52.9891 C.3     1  ZINC000534890536    0.0300
      2 O2        -12.0046   -0.5107   53.1610 O.3     1  ZINC000534890536   -0.3200
      3 C3        -11.0361    0.4108   52.9171 C.ar    1  ZINC000534890536    0.1300
      4 C4         -9.6987    0.0612   53.0353 C.ar    1  ZINC000534890536   -0.2100
      5 C5         -8.7161    0.9997   52.7864 C.ar    1  ZINC000534890536   -0.0700
      6 C6         -9.0644    2.2867   52.4202 C.ar    1  ZINC000534890536   -0.1100
      7 C7         -7.9904    3.3086   52.1498 C.3     1  ZINC000534890536   -0.0600
      8 H8         -7.7209    3.8399   53.0625 H       1  ZINC000534890536    0.0900
      9 C9         -8.4315    4.2986   51.0395 C.3     1  ZINC000534890536   -0.1200
     10 C10        -7.0886    4.7653   50.4391 C.3     1  ZINC000534890536    0.1000
     11 N11        -6.0870    3.7376   50.7586 N.am    1  ZINC000534890536   -0.6400
     12 C12        -4.7814    3.7834   50.4271 C.2     1  ZINC000534890536    0.7300
     13 O13        -4.3436    4.7359   49.8113 O.2     1  ZINC000534890536   -0.5700
     14 N14        -3.9611    2.7733   50.7784 N.am    1  ZINC000534890536   -0.7300
     15 C15        -2.5423    2.8223   50.4166 C.3     1  ZINC000534890536    0.1600
     16 H16        -2.1924    3.8535   50.4623 H       1  ZINC000534890536    0.1200
     17 C17        -1.7373    1.9681   51.3991 C.3     1  ZINC000534890536   -0.1300
     18 C18        -0.3147    1.8083   50.8495 C.3     1  ZINC000534890536   -0.1300
     19 C19        -0.3728    0.9576   49.5802 C.3     1  ZINC000534890536    0.1100
     20 N20        -1.3752    1.4810   48.6607 N.am    1  ZINC000534890536   -0.5600
     21 C21        -1.2937    1.1011   47.3152 C.ar    1  ZINC000534890536    0.1000
     22 C22        -1.8004   -0.1245   46.9066 C.ar    1  ZINC000534890536   -0.0800
     23 C23        -1.7191   -0.4965   45.5783 C.ar    1  ZINC000534890536   -0.1200
     24 C24        -1.1332    0.3498   44.6556 C.ar    1  ZINC000534890536   -0.0800
     25 C25        -0.6266    1.5724   45.0578 C.ar    1  ZINC000534890536   -0.1500
     26 C26        -0.7097    1.9537   46.3842 C.ar    1  ZINC000534890536    0.1100
     27 F27        -0.2153    3.1480   46.7772 F       1  ZINC000534890536   -0.1300
     28 C28        -2.3650    2.2968   49.0210 C.2     1  ZINC000534890536    0.5000
     29 O29        -3.1660    2.6360   48.1756 O.2     1  ZINC000534890536   -0.5100
     30 C30        -6.7466    2.6492   51.5034 C.3     1  ZINC000534890536    0.1300
     31 C31       -10.3966    2.6375   52.3013 C.ar    1  ZINC000534890536   -0.0700
     32 C32       -11.3830    1.7013   52.5440 C.ar    1  ZINC000534890536   -0.1500
     33 H33       -13.5694    0.7418   53.6624 H       1  ZINC000534890536    0.0600
     34 H34       -13.5122    0.2307   51.9584 H       1  ZINC000534890536    0.0600
     35 H35       -14.0293   -0.9186   53.2154 H       1  ZINC000534890536    0.1000
     36 H36        -9.4261   -0.9437   53.3219 H       1  ZINC000534890536    0.1300
     37 H37        -7.6748    0.7281   52.8781 H       1  ZINC000534890536    0.1300
     38 H38        -9.0345    3.7904   50.2870 H       1  ZINC000534890536    0.0800
     39 H39        -8.9759    5.1404   51.4675 H       1  ZINC000534890536    0.0900
     40 H40        -7.1819    4.8687   49.3581 H       1  ZINC000534890536    0.0700
     41 H41        -6.7962    5.7180   50.8808 H       1  ZINC000534890536    0.0700
     42 H42        -4.3101    2.0139   51.2709 H       1  ZINC000534890536    0.4000
     43 H43        -1.7022    2.4609   52.3706 H       1  ZINC000534890536    0.0900
     44 H44        -2.2036    0.9881   51.5009 H       1  ZINC000534890536    0.0800
     45 H45         0.0986    2.7890   50.6139 H       1  ZINC000534890536    0.0800
     46 H46         0.3111    1.3141   51.5927 H       1  ZINC000534890536    0.1000
     47 H47         0.6028    0.9686   49.0940 H       1  ZINC000534890536    0.0800
     48 H48        -0.6280   -0.0684   49.8455 H       1  ZINC000534890536    0.0700
     49 H49        -2.2578   -0.7871   47.6264 H       1  ZINC000534890536    0.1300
     50 H50        -2.1135   -1.4504   45.2605 H       1  ZINC000534890536    0.1300
     51 H51        -1.0706    0.0556   43.6184 H       1  ZINC000534890536    0.1400
     52 H52        -0.1695    2.2314   44.3344 H       1  ZINC000534890536    0.1400
     53 H53        -6.0806    2.2579   52.2725 H       1  ZINC000534890536    0.0800
     54 H54        -7.0503    1.8536   50.8229 H       1  ZINC000534890536    0.0700
     55 H55       -10.6661    3.6433   52.0148 H       1  ZINC000534890536    0.1300
     56 H56       -12.4233    1.9757   52.4510 H       1  ZINC000534890536    0.1300
@<TRIPOS>BOND
     1     1     2    1
     2     1    33    1
     3     1    34    1
     4     1    35    1
     5     2     3    1
     6     3    32   ar
     7     3     4   ar
     8     4     5   ar
     9     4    36    1
    10     5     6   ar
    11     5    37    1
    12     6     7    1
    13     6    31   ar
    14     7     8    1
    15     7    30    1
    16     7     9    1
    17     9    10    1
    18     9    38    1
    19     9    39    1
    20    10    11    1
    21    10    40    1
    22    10    41    1
    23    11    12   am
    24    11    30    1
    25    12    13    2
    26    12    14   am
    27    14    15    1
    28    14    42    1
    29    15    16    1
    30    15    28    1
    31    15    17    1
    32    17    18    1
    33    17    43    1
    34    17    44    1
    35    18    19    1
    36    18    45    1
    37    18    46    1
    38    19    20    1
    39    19    47    1
    40    19    48    1
    41    20    21    1
    42    20    28   am
    43    21    26   ar
    44    21    22   ar
    45    22    23   ar
    46    22    49    1
    47    23    24   ar
    48    23    50    1
    49    24    25   ar
    50    24    51    1
    51    25    26   ar
    52    25    52    1
    53    26    27    1
    54    28    29    2
    55    30    53    1
    56    30    54    1
    57    31    32   ar
    58    31    55    1
    59    32    56    1
@<TRIPOS>SUBSTRUCTURE
     1 ZINC000534890536        1 TEMP              0 ****  ****    0 ROOT


##########                                Name:    ZINC000062882109
##########                DOCK_Rotatable_Bonds:                   8
##########                         Heavy_Atoms:                  31
##########                    Molecular_Weight:             424.497
##########                DOCK_Rotatable_Bonds:                   8
##########                       Formal_Charge:           0.0299993
##########                     HBond_Acceptors:                   7
##########                        HBond_Donors:                   1
##########                         Heavy_Atoms:                  31
##########                          Grid_Score:          -30.569603
##########                     Grid_vdw_energy:          -29.174898
##########                      Grid_es_energy:           -1.394705
##########           Internal_energy_repulsive:          192.179581

@<TRIPOS>MOLECULE
ZINC000062882109
 59 61 1 0 0
SMALL
USER_CHARGES


@<TRIPOS>ATOM
      1 C1        -12.8675   -2.8148   59.7696 C.3     1  ZINC000062882109   -0.2000
      2 C2        -13.8643   -2.8159   58.6394 C.2     1  ZINC000062882109    0.3900
      3 O3        -14.9363   -3.3655   58.7770 O.2     1  ZINC000062882109   -0.4500
      4 C4        -13.5366   -2.1498   57.3685 C.ar    1  ZINC000062882109   -0.1300
      5 C5        -14.4528   -2.1631   56.3121 C.ar    1  ZINC000062882109   -0.1100
      6 C6        -14.1412   -1.5375   55.1229 C.ar    1  ZINC000062882109   -0.0900
      7 C7        -12.9253   -0.8964   54.9709 C.ar    1  ZINC000062882109   -0.1800
      8 C8        -12.0081   -0.8775   56.0138 C.ar    1  ZINC000062882109    0.1200
      9 O9        -10.8150   -0.2455   55.8573 O.3     1  ZINC000062882109   -0.2800
     10 C10       -10.0794    0.0549   57.0450 C.3     1  ZINC000062882109    0.0700
     11 H11        -9.9866   -0.8453   57.6525 H       1  ZINC000062882109    0.1000
     12 C12       -10.8155    1.1341   57.8414 C.3     1  ZINC000062882109   -0.1800
     13 C13        -8.7067    0.5536   56.6730 C.2     1  ZINC000062882109    0.5200
     14 O14        -7.9528   -0.1582   56.0437 O.2     1  ZINC000062882109   -0.4900
     15 N15        -8.3170    1.7906   57.0396 N.am    1  ZINC000062882109   -0.6600
     16 C16        -7.0409    2.2543   56.6938 C.ar    1  ZINC000062882109    0.1400
     17 C17        -6.1387    2.6117   57.6865 C.ar    1  ZINC000062882109   -0.1000
     18 C18        -4.8798    3.0710   57.3495 C.ar    1  ZINC000062882109   -0.1100
     19 C19        -4.5110    3.1777   56.0169 C.ar    1  ZINC000062882109    0.0800
     20 O20        -3.2723    3.6394   55.6979 O.3     1  ZINC000062882109   -0.3100
     21 C21        -2.7625    3.3346   54.3976 C.3     1  ZINC000062882109    0.0500
     22 C22        -3.8283    3.6920   53.3519 C.3     1  ZINC000062882109    0.0400
     23 N23        -5.0407    2.9185   53.6698 N.am    1  ZINC000062882109   -0.5500
     24 C24        -5.7663    2.3290   52.6989 C.2     1  ZINC000062882109    0.5300
     25 O25        -6.7614    1.6969   52.9844 O.2     1  ZINC000062882109   -0.5100
     26 C26        -5.3412    2.4553   51.2586 C.3     1  ZINC000062882109   -0.0800
     27 C27        -6.4102    1.8369   50.3553 C.3     1  ZINC000062882109   -0.1300
     28 C28        -5.1684    3.9339   50.9057 C.3     1  ZINC000062882109   -0.1600
     29 C29        -4.0136    1.7233   51.0526 C.3     1  ZINC000062882109   -0.1500
     30 C30        -5.4146    2.8159   55.0207 C.ar    1  ZINC000062882109    0.1000
     31 C31        -6.6751    2.3518   55.3577 C.ar    1  ZINC000062882109   -0.1400
     32 C32       -12.3106   -1.4960   57.2143 C.ar    1  ZINC000062882109   -0.0900
     33 H33       -13.2838   -3.3521   60.6218 H       1  ZINC000062882109    0.0900
     34 H34       -11.9493   -3.3044   59.4449 H       1  ZINC000062882109    0.1000
     35 H35       -12.6483   -1.7873   60.0598 H       1  ZINC000062882109    0.1000
     36 H36       -15.4030   -2.6631   56.4270 H       1  ZINC000062882109    0.1400
     37 H37       -14.8491   -1.5486   54.3074 H       1  ZINC000062882109    0.1300
     38 H38       -12.6878   -0.4085   54.0372 H       1  ZINC000062882109    0.1300
     39 H39       -11.8083    0.7734   58.1105 H       1  ZINC000062882109    0.0800
     40 H40       -10.2544    1.3633   58.7475 H       1  ZINC000062882109    0.0800
     41 H41       -10.9083    2.0343   57.2340 H       1  ZINC000062882109    0.0800
     42 H42        -8.9200    2.3599   57.5428 H       1  ZINC000062882109    0.4100
     43 H43        -6.4216    2.5305   58.7256 H       1  ZINC000062882109    0.1400
     44 H44        -4.1816    3.3481   58.1255 H       1  ZINC000062882109    0.1400
     45 H45        -1.8600    3.9173   54.2133 H       1  ZINC000062882109    0.1300
     46 H46        -2.5320    2.2711   54.3356 H       1  ZINC000062882109    0.0700
     47 H47        -4.0477    4.7588   53.3970 H       1  ZINC000062882109    0.0900
     48 H48        -3.4721    3.4287   52.3559 H       1  ZINC000062882109    0.1300
     49 H49        -7.3560    2.3584   50.5021 H       1  ZINC000062882109    0.0600
     50 H50        -6.1027    1.9283   49.3136 H       1  ZINC000062882109    0.0700
     51 H51        -6.5332    0.7835   50.6067 H       1  ZINC000062882109    0.0700
     52 H52        -4.4070    4.3745   51.5491 H       1  ZINC000062882109    0.0700
     53 H53        -4.8611    4.0253   49.8639 H       1  ZINC000062882109    0.0800
     54 H54        -6.1142    4.4555   51.0524 H       1  ZINC000062882109    0.0600
     55 H55        -4.1792    0.6475   51.1098 H       1  ZINC000062882109    0.0700
     56 H56        -3.6071    1.9767   50.0735 H       1  ZINC000062882109    0.0800
     57 H57        -3.3088    2.0242   51.8276 H       1  ZINC000062882109    0.0700
     58 H58        -7.3734    2.0705   54.5833 H       1  ZINC000062882109    0.1800
     59 H59       -11.5982   -1.4815   58.0259 H       1  ZINC000062882109    0.1400
@<TRIPOS>BOND
     1     1     2    1
     2     1    33    1
     3     1    34    1
     4     1    35    1
     5     2     3    2
     6     2     4    1
     7     4    32   ar
     8     4     5   ar
     9     5     6   ar
    10     5    36    1
    11     6     7   ar
    12     6    37    1
    13     7     8   ar
    14     7    38    1
    15     8     9    1
    16     8    32   ar
    17     9    10    1
    18    10    11    1
    19    10    12    1
    20    10    13    1
    21    12    39    1
    22    12    40    1
    23    12    41    1
    24    13    14    2
    25    13    15   am
    26    15    16    1
    27    15    42    1
    28    16    31   ar
    29    16    17   ar
    30    17    18   ar
    31    17    43    1
    32    18    19   ar
    33    18    44    1
    34    19    30   ar
    35    19    20    1
    36    20    21    1
    37    21    22    1
    38    21    45    1
    39    21    46    1
    40    22    23    1
    41    22    47    1
    42    22    48    1
    43    23    24   am
    44    23    30    1
    45    24    25    2
    46    24    26    1
    47    26    27    1
    48    26    28    1
    49    26    29    1
    50    27    49    1
    51    27    50    1
    52    27    51    1
    53    28    52    1
    54    28    53    1
    55    28    54    1
    56    29    55    1
    57    29    56    1
    58    29    57    1
    59    30    31   ar
    60    31    58    1
    61    32    59    1
@<TRIPOS>SUBSTRUCTURE
     1 ZINC000062882109        1 TEMP              0 ****  ****    0 ROOT


##########                                Name:    ZINC001141221454
##########                DOCK_Rotatable_Bonds:                   7
##########                         Heavy_Atoms:                  27
##########                    Molecular_Weight:             369.439
##########                DOCK_Rotatable_Bonds:                   7
##########                       Formal_Charge:          0.00999935
##########                     HBond_Acceptors:                   6
##########                        HBond_Donors:                   1
##########                         Heavy_Atoms:                  27
##########                          Grid_Score:          -30.563868
##########                     Grid_vdw_energy:          -30.005079
##########                      Grid_es_energy:           -0.558789
##########           Internal_energy_repulsive:           13.888236

@<TRIPOS>MOLECULE
ZINC001141221454
 51 54 1 0 0
SMALL
USER_CHARGES


@<TRIPOS>ATOM
      1 C1         -2.4658    2.4796   49.6231 C.3     1  ZINC001141221454    0.0300
      2 O2         -3.0857    1.7748   50.7007 O.3     1  ZINC001141221454   -0.3100
      3 C3         -4.3933    2.0525   50.9487 C.ar    1  ZINC001141221454    0.0900
      4 C4         -5.3001    2.1162   49.9023 C.ar    1  ZINC001141221454   -0.1800
      5 C5         -6.6292    2.3982   50.1567 C.ar    1  ZINC001141221454   -0.0900
      6 C6         -7.0555    2.6170   51.4532 C.ar    1  ZINC001141221454   -0.1200
      7 C7         -6.1539    2.5549   52.5001 C.ar    1  ZINC001141221454   -0.0800
      8 C8         -6.6221    2.7944   53.9124 C.3     1  ZINC001141221454    0.0900
      9 N9         -7.0820    1.5279   54.4972 N.3     1  ZINC001141221454   -0.5100
     10 C10        -7.1665    1.6245   55.9776 C.3     1  ZINC001141221454    0.0300
     11 C11        -8.1335    0.4727   56.3568 C.3     1  ZINC001141221454   -0.0700
     12 C12        -9.1517    0.4911   55.2019 C.3     1  ZINC001141221454   -0.1000
     13 C13       -10.6403    0.6763   55.4658 C.3     1  ZINC001141221454   -0.1400
     14 C14       -10.1074   -0.6726   54.9739 C.3     1  ZINC001141221454   -0.1800
     15 H15       -10.3221   -0.9532   53.9428 H       1  ZINC001141221454    0.1300
     16 C16       -10.0703   -1.8091   55.9628 C.2     1  ZINC001141221454    0.5500
     17 O17        -9.5481   -2.8607   55.6588 O.2     1  ZINC001141221454   -0.5300
     18 N18       -10.6174   -1.6569   57.1851 N.am    1  ZINC001141221454   -0.7300
     19 C19       -10.5829   -2.7623   58.1459 C.3     1  ZINC001141221454    0.1700
     20 C20        -9.1516   -3.1486   58.4162 C.ar    1  ZINC001141221454   -0.1600
     21 C21        -8.2049   -2.1777   58.7041 C.ar    1  ZINC001141221454   -0.0600
     22 C22        -6.9000   -2.5796   58.9466 C.ar    1  ZINC001141221454   -0.1700
     23 C23        -6.5889   -3.9248   58.8936 C.ar    1  ZINC001141221454    0.1100
     24 N24        -7.5158   -4.8213   58.6164 N.ar    1  ZINC001141221454   -0.4800
     25 C25        -8.7672   -4.4760   58.3858 C.ar    1  ZINC001141221454    0.1200
     26 C26        -8.4489    1.1950   54.0345 C.3     1  ZINC001141221454    0.0700
     27 C27        -4.8241    2.2675   52.2521 C.ar    1  ZINC001141221454    0.0900
     28 F28        -3.9431    2.2067   53.2745 F       1  ZINC001141221454   -0.1300
     29 H29        -1.4260    2.1649   49.5336 H       1  ZINC001141221454    0.1000
     30 H30        -2.9930    2.2602   48.6946 H       1  ZINC001141221454    0.0600
     31 H31        -2.5056    3.5511   49.8191 H       1  ZINC001141221454    0.0600
     32 H32        -4.9685    1.9458   48.8887 H       1  ZINC001141221454    0.1400
     33 H33        -7.3355    2.4481   49.3412 H       1  ZINC001141221454    0.1300
     34 H34        -8.0945    2.8371   51.6490 H       1  ZINC001141221454    0.1300
     35 H35        -5.7983    3.1908   54.5059 H       1  ZINC001141221454    0.0600
     36 H36        -7.4432    3.5112   53.9062 H       1  ZINC001141221454    0.0900
     37 H37        -6.1869    1.4683   56.4294 H       1  ZINC001141221454    0.0800
     38 H38        -7.5798    2.5877   56.2768 H       1  ZINC001141221454    0.0500
     39 H39        -7.6051   -0.4800   56.3909 H       1  ZINC001141221454    0.0900
     40 H40        -8.6244    0.6779   57.3081 H       1  ZINC001141221454    0.0700
     41 H41       -10.9632    0.7415   56.5048 H       1  ZINC001141221454    0.1000
     42 H42       -11.2056    1.2828   54.7581 H       1  ZINC001141221454    0.1100
     43 H43       -11.0339   -0.8154   57.4286 H       1  ZINC001141221454    0.4000
     44 H44       -11.0569   -2.4499   59.0763 H       1  ZINC001141221454    0.0800
     45 H45       -11.1186   -3.6179   57.7347 H       1  ZINC001141221454    0.0800
     46 H46        -8.4771   -1.1331   58.7385 H       1  ZINC001141221454    0.1400
     47 H47        -6.1365   -1.8503   59.1738 H       1  ZINC001141221454    0.1400
     48 H48        -5.5749   -4.2460   59.0808 H       1  ZINC001141221454    0.1600
     49 H49        -9.4986   -5.2384   58.1619 H       1  ZINC001141221454    0.1600
     50 H50        -8.9856    2.1064   53.7711 H       1  ZINC001141221454    0.0500
     51 H51        -8.3992    0.5291   53.1730 H       1  ZINC001141221454    0.0900
@<TRIPOS>BOND
     1     1     2    1
     2     1    29    1
     3     1    30    1
     4     1    31    1
     5     2     3    1
     6     3    27   ar
     7     3     4   ar
     8     4     5   ar
     9     4    32    1
    10     5     6   ar
    11     5    33    1
    12     6     7   ar
    13     6    34    1
    14     7     8    1
    15     7    27   ar
    16     8     9    1
    17     8    35    1
    18     8    36    1
    19     9    26    1
    20     9    10    1
    21    10    11    1
    22    10    37    1
    23    10    38    1
    24    11    12    1
    25    11    39    1
    26    11    40    1
    27    12    14    1
    28    12    13    1
    29    12    26    1
    30    13    14    1
    31    13    41    1
    32    13    42    1
    33    14    15    1
    34    14    16    1
    35    16    17    2
    36    16    18   am
    37    18    19    1
    38    18    43    1
    39    19    20    1
    40    19    44    1
    41    19    45    1
    42    20    25   ar
    43    20    21   ar
    44    21    22   ar
    45    21    46    1
    46    22    23   ar
    47    22    47    1
    48    23    24   ar
    49    23    48    1
    50    24    25   ar
    51    25    49    1
    52    26    50    1
    53    26    51    1
    54    27    28    1
@<TRIPOS>SUBSTRUCTURE
     1 ZINC001141221454        1 TEMP              0 ****  ****    0 ROOT


##########                                Name:    ZINC001436455587
##########                DOCK_Rotatable_Bonds:                   9
##########                         Heavy_Atoms:                  21
##########                    Molecular_Weight:             378.693
##########                DOCK_Rotatable_Bonds:                   9
##########                       Formal_Charge:          -0.0200001
##########                     HBond_Acceptors:                   5
##########                        HBond_Donors:                   1
##########                         Heavy_Atoms:                  21
##########                          Grid_Score:          -30.563572
##########                     Grid_vdw_energy:          -29.431700
##########                      Grid_es_energy:           -1.131871
##########           Internal_energy_repulsive:           10.934998

@<TRIPOS>MOLECULE
ZINC001436455587
 42 42 1 0 0
SMALL
USER_CHARGES


@<TRIPOS>ATOM
      1 C1         -7.9088    0.1217   65.6911 C.3     1  ZINC001436455587   -0.1500
      2 C2         -9.1758    0.1087   64.8337 C.3     1  ZINC001436455587   -0.1300
      3 C3         -8.8815    0.7560   63.4789 C.3     1  ZINC001436455587   -0.1400
      4 C4        -10.1359    0.7019   62.6046 C.3     1  ZINC001436455587    0.0800
      5 H5        -10.3290   -0.3295   62.3096 H       1  ZINC001436455587    0.0700
      6 C6         -9.9238    1.5586   61.3547 C.3     1  ZINC001436455587    0.1200
      7 N7         -8.7740    1.0494   60.6030 N.am    1  ZINC001436455587   -0.7200
      8 C8         -8.7542    1.1403   59.2584 C.2     1  ZINC001436455587    0.5200
      9 O9         -9.6875    1.6449   58.6710 O.2     1  ZINC001436455587   -0.5100
     10 C10        -7.5723    0.6149   58.4850 C.3     1  ZINC001436455587    0.0600
     11 H11        -6.9480    0.0095   59.1423 H       1  ZINC001436455587    0.1000
     12 C12        -6.7543    1.7890   57.9438 C.3     1  ZINC001436455587   -0.1800
     13 O13        -8.0339   -0.1864   57.3957 O.3     1  ZINC001436455587   -0.2700
     14 C14        -8.1611   -1.5208   57.6214 C.ar    1  ZINC001436455587    0.1600
     15 C15        -7.1039   -2.2374   58.1615 C.ar    1  ZINC001436455587   -0.2000
     16 C16        -7.2351   -3.5938   58.3908 C.ar    1  ZINC001436455587   -0.0500
     17 C17        -8.4199   -4.2374   58.0816 C.ar    1  ZINC001436455587   -0.0700
     18 Cl18       -8.5816   -5.9416   58.3702 Cl      1  ZINC001436455587   -0.0600
     19 C19        -9.4767   -3.5246   57.5428 C.ar    1  ZINC001436455587   -0.0400
     20 C20        -9.3515   -2.1670   57.3169 C.ar    1  ZINC001436455587   -0.1200
     21 Br21      -10.7955   -1.1930   56.5807 Br      1  ZINC001436455587   -0.0100
     22 O22       -11.2525    1.2035   63.3418 O.3     1  ZINC001436455587   -0.3800
     23 C23       -12.5103    1.0192   62.6889 C.3     1  ZINC001436455587    0.0200
     24 H24        -7.1216   -0.4370   65.1847 H       1  ZINC001436455587    0.0500
     25 H25        -7.5835    1.1510   65.8431 H       1  ZINC001436455587    0.0600
     26 H26        -8.1184   -0.3393   66.6562 H       1  ZINC001436455587    0.0600
     27 H27        -9.5011   -0.9204   64.6815 H       1  ZINC001436455587    0.0600
     28 H28        -9.9629    0.6676   65.3399 H       1  ZINC001436455587    0.0700
     29 H29        -8.5877    1.7949   63.6287 H       1  ZINC001436455587    0.0800
     30 H30        -8.0721    0.2168   62.9868 H       1  ZINC001436455587    0.0800
     31 H31       -10.8152    1.5150   60.7288 H       1  ZINC001436455587    0.0800
     32 H32        -9.7369    2.5912   61.6493 H       1  ZINC001436455587    0.0800
     33 H33        -8.0270    0.6468   61.0730 H       1  ZINC001436455587    0.4000
     34 H34        -5.8994    1.4090   57.3844 H       1  ZINC001436455587    0.0800
     35 H35        -7.3784    2.3944   57.2865 H       1  ZINC001436455587    0.0800
     36 H36        -6.4020    2.4002   58.7748 H       1  ZINC001436455587    0.0800
     37 H37        -6.1784   -1.7357   58.4025 H       1  ZINC001436455587    0.1500
     38 H38        -6.4118   -4.1520   58.8115 H       1  ZINC001436455587    0.1400
     39 H39       -10.4010   -4.0288   57.3024 H       1  ZINC001436455587    0.1500
     40 H40       -12.7242   -0.0464   62.6065 H       1  ZINC001436455587    0.0500
     41 H41       -13.2954    1.5036   63.2694 H       1  ZINC001436455587    0.0900
     42 H42       -12.4704    1.4599   61.6928 H       1  ZINC001436455587    0.0400
@<TRIPOS>BOND
     1     1     2    1
     2     1    24    1
     3     1    25    1
     4     1    26    1
     5     2     3    1
     6     2    27    1
     7     2    28    1
     8     3     4    1
     9     3    29    1
    10     3    30    1
    11     4     5    1
    12     4     6    1
    13     4    22    1
    14     6     7    1
    15     6    31    1
    16     6    32    1
    17     7     8   am
    18     7    33    1
    19     8     9    2
    20     8    10    1
    21    10    11    1
    22    10    12    1
    23    10    13    1
    24    12    34    1
    25    12    35    1
    26    12    36    1
    27    13    14    1
    28    14    20   ar
    29    14    15   ar
    30    15    16   ar
    31    15    37    1
    32    16    17   ar
    33    16    38    1
    34    17    18    1
    35    17    19   ar
    36    19    20   ar
    37    19    39    1
    38    20    21    1
    39    22    23    1
    40    23    40    1
    41    23    41    1
    42    23    42    1
@<TRIPOS>SUBSTRUCTURE
     1 ZINC001436455587        1 TEMP              0 ****  ****    0 ROOT


##########                                Name:    ZINC001291841503
##########                DOCK_Rotatable_Bonds:                   7
##########                         Heavy_Atoms:                  28
##########                    Molecular_Weight:             397.544
##########                DOCK_Rotatable_Bonds:                   7
##########                       Formal_Charge:         -0.00999964
##########                     HBond_Acceptors:                   7
##########                        HBond_Donors:                   0
##########                         Heavy_Atoms:                  28
##########                          Grid_Score:          -30.551352
##########                     Grid_vdw_energy:          -29.564638
##########                      Grid_es_energy:           -0.986714
##########           Internal_energy_repulsive:           18.307293

@<TRIPOS>MOLECULE
ZINC001291841503
 55 58 1 0 0
SMALL
USER_CHARGES


@<TRIPOS>ATOM
      1 C1         -4.7969    2.3395   53.2722 C.3     1  ZINC001291841503   -0.1500
      2 C2         -4.5161    1.8873   51.8377 C.3     1  ZINC001291841503   -0.1100
      3 C3         -4.0752    3.0899   51.0009 C.3     1  ZINC001291841503    0.0500
      4 H4         -3.2823    3.6251   51.5235 H       1  ZINC001291841503    0.0900
      5 C5         -3.5637    2.6126   49.6661 C.2     1  ZINC001291841503    0.2000
      6 N6         -4.2081    2.6495   48.5342 N.2     1  ZINC001291841503   -0.2700
      7 N7         -3.4780    2.1621   47.5954 N.2     1  ZINC001291841503   -0.3100
      8 C8         -2.3192    1.7853   48.0819 C.2     1  ZINC001291841503    0.3600
      9 N9         -1.2740    1.2150   47.3725 N.3     1  ZINC001291841503   -0.4500
     10 C10        -1.4270   -0.2437   47.2912 C.3     1  ZINC001291841503    0.0200
     11 C11        -1.1613    1.8080   46.0334 C.3     1  ZINC001291841503    0.0700
     12 H12        -2.0830    1.6658   45.4692 H       1  ZINC001291841503    0.0800
     13 C13        -0.7963    3.3148   46.1250 C.3     1  ZINC001291841503   -0.1400
     14 C14        -0.0503    3.5190   44.7824 C.3     1  ZINC001291841503    0.0500
     15 O15         0.6789    2.2998   44.5693 O.3     1  ZINC001291841503   -0.3800
     16 C16         0.0456    1.2193   45.2715 C.3     1  ZINC001291841503    0.0600
     17 N17        -2.3352    2.0662   49.4171 N.pl3   1  ZINC001291841503   -0.4700
     18 C18        -1.2625    1.8237   50.3849 C.3     1  ZINC001291841503    0.1900
     19 C19        -0.8230    3.1337   50.9865 C.2     1  ZINC001291841503   -0.2700
     20 C20        -0.3251    3.3072   52.2145 C.2     1  ZINC001291841503    0.0800
     21 N21        -0.0141    4.5540   52.5069 N.2     1  ZINC001291841503   -0.4800
     22 C22        -0.2219    5.4417   51.5940 C.2     1  ZINC001291841503    0.0500
     23 C23         0.0687    6.9133   51.7397 C.3     1  ZINC001291841503   -0.0800
     24 S24        -0.8678    4.7060   50.1924 S.3     1  ZINC001291841503    0.1800
     25 C25        -5.2483    4.0117   50.7890 C.ar    1  ZINC001291841503   -0.0900
     26 C26        -6.4260    3.5206   50.2573 C.ar    1  ZINC001291841503   -0.0900
     27 C27        -7.5021    4.3661   50.0629 C.ar    1  ZINC001291841503   -0.1200
     28 C28        -7.4008    5.7027   50.4007 C.ar    1  ZINC001291841503   -0.1200
     29 C29        -6.2234    6.1937   50.9332 C.ar    1  ZINC001291841503   -0.1200
     30 C30        -5.1486    5.3472   51.1316 C.ar    1  ZINC001291841503   -0.1100
     31 H31        -3.8916    2.7687   53.7016 H       1  ZINC001291841503    0.0500
     32 H32        -5.5880    3.0893   53.2684 H       1  ZINC001291841503    0.0500
     33 H33        -5.1110    1.4828   53.8683 H       1  ZINC001291841503    0.0600
     34 H34        -3.7249    1.1376   51.8414 H       1  ZINC001291841503    0.0800
     35 H35        -5.4213    1.4581   51.4083 H       1  ZINC001291841503    0.0800
     36 H36        -2.3149   -0.4839   46.7061 H       1  ZINC001291841503    0.0500
     37 H37        -0.5484   -0.6751   46.8117 H       1  ZINC001291841503    0.0900
     38 H38        -1.5316   -0.6547   48.2953 H       1  ZINC001291841503    0.0700
     39 H39        -1.6921    3.9338   46.1748 H       1  ZINC001291841503    0.0900
     40 H40        -0.1394    3.5090   46.9729 H       1  ZINC001291841503    0.0800
     41 H41        -0.7636    3.6794   43.9739 H       1  ZINC001291841503    0.0700
     42 H42         0.6361    4.3626   44.8554 H       1  ZINC001291841503    0.0900
     43 H43         0.7465    0.7773   45.9797 H       1  ZINC001291841503    0.0800
     44 H44        -0.2908    0.4636   44.5617 H       1  ZINC001291841503    0.0700
     45 H45        -1.6269    1.1658   51.1739 H       1  ZINC001291841503    0.1100
     46 H46        -0.4179    1.3538   49.8811 H       1  ZINC001291841503    0.1100
     47 H47        -0.1887    2.4925   52.9101 H       1  ZINC001291841503    0.1700
     48 H48         1.0882    7.1165   51.4118 H       1  ZINC001291841503    0.0900
     49 H49        -0.6302    7.4840   51.1283 H       1  ZINC001291841503    0.0800
     50 H50        -0.0415    7.2037   52.7846 H       1  ZINC001291841503    0.0900
     51 H51        -6.5052    2.4763   49.9935 H       1  ZINC001291841503    0.1300
     52 H52        -8.4220    3.9825   49.6469 H       1  ZINC001291841503    0.1200
     53 H53        -8.2413    6.3635   50.2482 H       1  ZINC001291841503    0.1200
     54 H54        -6.1441    7.2380   51.1968 H       1  ZINC001291841503    0.1200
     55 H55        -4.2288    5.7308   51.5477 H       1  ZINC001291841503    0.1200
@<TRIPOS>BOND
     1     1     2    1
     2     1    31    1
     3     1    32    1
     4     1    33    1
     5     2     3    1
     6     2    34    1
     7     2    35    1
     8     3     4    1
     9     3     5    1
    10     3    25    1
    11     5    17    1
    12     5     6    2
    13     6     7    1
    14     7     8    2
    15     8     9    1
    16     8    17    1
    17     9    10    1
    18     9    11    1
    19    10    36    1
    20    10    37    1
    21    10    38    1
    22    11    12    1
    23    11    16    1
    24    11    13    1
    25    13    14    1
    26    13    39    1
    27    13    40    1
    28    14    15    1
    29    14    41    1
    30    14    42    1
    31    15    16    1
    32    16    43    1
    33    16    44    1
    34    17    18    1
    35    18    19    1
    36    18    45    1
    37    18    46    1
    38    19    24    1
    39    19    20    2
    40    20    21    1
    41    20    47    1
    42    21    22    2
    43    22    23    1
    44    22    24    1
    45    23    48    1
    46    23    49    1
    47    23    50    1
    48    25    30   ar
    49    25    26   ar
    50    26    27   ar
    51    26    51    1
    52    27    28   ar
    53    27    52    1
    54    28    29   ar
    55    28    53    1
    56    29    30   ar
    57    29    54    1
    58    30    55    1
@<TRIPOS>SUBSTRUCTURE
     1 ZINC001291841503        1 TEMP              0 ****  ****    0 ROOT


##########                                Name:    ZINC000342525234
##########                DOCK_Rotatable_Bonds:                   6
##########                         Heavy_Atoms:                  25
##########                    Molecular_Weight:             333.349
##########                DOCK_Rotatable_Bonds:                   6
##########                       Formal_Charge:           0.0500003
##########                     HBond_Acceptors:                   7
##########                        HBond_Donors:                   2
##########                         Heavy_Atoms:                  25
##########                          Grid_Score:          -30.542412
##########                     Grid_vdw_energy:          -28.772007
##########                      Grid_es_energy:           -1.770405
##########           Internal_energy_repulsive:            5.652910

@<TRIPOS>MOLECULE
ZINC000342525234
 40 43 1 0 0
SMALL
USER_CHARGES


@<TRIPOS>ATOM
      1 O1         -4.9067    3.7459   51.9711 O.2     1  <0>        -0.5100
      2 C2         -5.3994    2.9638   51.1826 C.2     1  <0>         0.6000
      3 N3         -4.7610    1.8146   50.8854 N.am    1  <0>        -0.7100
      4 C4         -3.4703    1.5113   51.5084 C.3     1  <0>         0.1200
      5 C5         -2.3654    2.3001   50.8028 C.3     1  <0>        -0.0900
      6 C6         -2.1520    1.7389   49.4205 C.ar    1  <0>        -0.0400
      7 C7         -2.7112    2.3709   48.3586 C.ar    1  <0>        -0.1000
      8 C8         -2.5182    1.8544   47.0592 C.ar    1  <0>         0.1100
      9 N9         -2.9097    2.2127   45.8499 N.2     1  <0>        -0.3100
     10 N10        -2.4025    1.2995   44.9185 N.pl3   1  <0>        -0.4200
     11 C11        -1.6851    0.3576   45.5456 C.2     1  <0>         0.0900
     12 C12        -1.7091    0.6361   46.8996 C.ar    1  <0>        -0.2100
     13 C13        -1.1578    0.0314   48.0494 C.ar    1  <0>        -0.0400
     14 C14        -1.3792    0.5855   49.2677 C.ar    1  <0>        -0.1500
     15 C15        -6.7064    3.2709   50.5517 C.2     1  <0>        -0.0200
     16 N16        -7.2984    2.5919   49.5998 N.2     1  <0>        -0.3200
     17 O17        -8.3568    3.0859   49.2887 O.3     1  <0>         0.1400
     18 C18        -8.6222    4.1899   50.0089 C.2     1  <0>         0.0100
     19 C19        -9.8201    5.0508   49.9025 C.ar    1  <0>         0.0200
     20 C20        -9.9686    6.1803   50.7156 C.ar    1  <0>        -0.1400
     21 C21       -11.1020    6.9556   50.5826 C.ar    1  <0>         0.1100
     22 N22       -12.0368    6.6442   49.7054 N.ar    1  <0>        -0.4800
     23 C23       -11.9365    5.5889   48.9200 C.ar    1  <0>         0.1100
     24 C24       -10.8340    4.7618   48.9821 C.ar    1  <0>        -0.1500
     25 C25        -7.5682    4.3553   50.8630 C.2     1  <0>        -0.1500
     26 H26        -5.1562    1.1884   50.2588 H       1  <0>         0.4100
     27 H27        -3.5005    1.7909   52.5615 H       1  <0>         0.0800
     28 H28        -3.2669    0.4440   51.4216 H       1  <0>         0.0800
     29 H29        -2.6575    3.3476   50.7286 H       1  <0>         0.0900
     30 H30        -1.4405    2.2204   51.3741 H       1  <0>         0.0800
     31 H31        -3.3008    3.2636   48.5064 H       1  <0>         0.1300
     32 H32        -2.5488    1.3421   43.9606 H       1  <0>         0.4500
     33 H33        -1.1782   -0.4726   45.0765 H       1  <0>         0.1900
     34 H34        -0.5599   -0.8636   47.9597 H       1  <0>         0.1300
     35 H35        -0.9539    0.1177   50.1433 H       1  <0>         0.1200
     36 H36        -9.2077    6.4408   51.4363 H       1  <0>         0.1400
     37 H37       -11.2258    7.8292   51.2054 H       1  <0>         0.1700
     38 H38       -12.7263    5.3718   48.2162 H       1  <0>         0.1700
     39 H39       -10.7585    3.8996   48.3360 H       1  <0>         0.1500
     40 H40        -7.4219    5.1328   51.5983 H       1  <0>         0.1900
@<TRIPOS>BOND
     1     1     2    2
     2     2     3   am
     3     2    15    1
     4     3     4    1
     5     3    26    1
     6     4     5    1
     7     4    27    1
     8     4    28    1
     9     5     6    1
    10     5    29    1
    11     5    30    1
    12     6    14   ar
    13     6     7   ar
    14     7     8   ar
    15     7    31    1
    16     8    12   ar
    17     8     9    2
    18     9    10    1
    19    10    11    1
    20    10    32    1
    21    11    12    2
    22    11    33    1
    23    12    13   ar
    24    13    14   ar
    25    13    34    1
    26    14    35    1
    27    15    25    1
    28    15    16    2
    29    16    17    1
    30    17    18    1
    31    18    19    1
    32    18    25    2
    33    19    24   ar
    34    19    20   ar
    35    20    21   ar
    36    20    36    1
    37    21    22   ar
    38    21    37    1
    39    22    23   ar
    40    23    24   ar
    41    23    38    1
    42    24    39    1
    43    25    40    1
@<TRIPOS>SUBSTRUCTURE
     1 <0>         1 TEMP              0 ****  ****    0 ROOT


##########                                Name:    ZINC000800038938
##########                DOCK_Rotatable_Bonds:                   6
##########                         Heavy_Atoms:                  25
##########                    Molecular_Weight:             386.274
##########                DOCK_Rotatable_Bonds:                   6
##########                       Formal_Charge:           0.0200003
##########                     HBond_Acceptors:                   7
##########                        HBond_Donors:                   0
##########                         Heavy_Atoms:                  25
##########                          Grid_Score:          -30.528082
##########                     Grid_vdw_energy:          -29.799686
##########                      Grid_es_energy:           -0.728395
##########           Internal_energy_repulsive:           14.176330

@<TRIPOS>MOLECULE
ZINC000800038938
 46 48 1 0 0
SMALL
USER_CHARGES


@<TRIPOS>ATOM
      1 C1         -8.7712    1.0621   65.3072 C.3     1  ZINC000800038938    0.0300
      2 O2         -9.1932    1.8790   64.2134 O.3     1  ZINC000800038938   -0.3800
      3 C3         -8.8131    1.3754   62.9312 C.3     1  ZINC000800038938    0.0900
      4 H4         -7.7317    1.2459   62.8870 H       1  ZINC000800038938    0.0700
      5 C5         -9.2748    2.3457   61.8243 C.3     1  ZINC000800038938   -0.1400
      6 C6         -9.7066    1.4178   60.6618 C.3     1  ZINC000800038938   -0.1400
      7 C7        -10.3823    0.2360   61.4005 C.3     1  ZINC000800038938    0.0900
      8 H8        -11.4049    0.4931   61.6765 H       1  ZINC000800038938    0.0900
      9 O9        -10.3653   -0.9571   60.5731 O.3     1  ZINC000800038938   -0.3500
     10 C10       -11.3501   -1.0866   59.6702 C.2     1  ZINC000800038938    0.4500
     11 O11       -11.8407   -0.1041   59.1663 O.2     1  ZINC000800038938   -0.4800
     12 C12       -11.8441   -2.4573   59.2854 C.3     1  ZINC000800038938    0.1500
     13 H13       -11.1857   -3.2191   59.7030 H       1  ZINC000800038938    0.1200
     14 C14       -13.2819   -2.6627   59.8072 C.3     1  ZINC000800038938   -0.1200
     15 C15       -13.9604   -3.4502   58.6551 C.3     1  ZINC000800038938   -0.1300
     16 C16       -13.2841   -2.8241   57.4100 C.3     1  ZINC000800038938    0.0900
     17 N17       -11.8859   -2.5807   57.8210 N.am    1  ZINC000800038938   -0.6000
     18 C18       -10.8285   -2.4850   56.9907 C.2     1  ZINC000800038938    0.5800
     19 O19       -10.9853   -2.6018   55.7910 O.2     1  ZINC000800038938   -0.4900
     20 C20        -9.4786   -2.2383   57.5390 C.ar    1  ZINC000800038938   -0.1100
     21 C21        -8.9025   -0.9709   57.4398 C.ar    1  ZINC000800038938   -0.0700
     22 C22        -7.6410   -0.7473   57.9542 C.ar    1  ZINC000800038938   -0.0400
     23 Cl23       -6.9228    0.8285   57.8322 Cl      1  ZINC000800038938   -0.0500
     24 C24        -6.9472   -1.7770   58.5675 C.ar    1  ZINC000800038938   -0.0700
     25 C25        -7.5118   -3.0354   58.6690 C.ar    1  ZINC000800038938   -0.1000
     26 C26        -8.7755   -3.2714   58.1643 C.ar    1  ZINC000800038938    0.0100
     27 Cl27       -9.4826   -4.8517   58.2926 Cl      1  ZINC000800038938   -0.0300
     28 C28        -9.5162    0.0335   62.6623 C.3     1  ZINC000800038938   -0.1200
     29 H29        -9.0983    1.5124   66.2444 H       1  ZINC000800038938    0.0900
     30 H30        -9.2090    0.0688   65.2090 H       1  ZINC000800038938    0.0400
     31 H31        -7.6841    0.9820   65.3025 H       1  ZINC000800038938    0.0400
     32 H32       -10.1186    2.9436   62.1688 H       1  ZINC000800038938    0.0800
     33 H33        -8.4517    2.9891   61.5133 H       1  ZINC000800038938    0.0800
     34 H34       -10.4184    1.9227   60.0085 H       1  ZINC000800038938    0.0800
     35 H35        -8.8388    1.0755   60.0980 H       1  ZINC000800038938    0.0800
     36 H36       -13.2786   -3.2495   60.7258 H       1  ZINC000800038938    0.1000
     37 H37       -13.7764   -1.7039   59.9625 H       1  ZINC000800038938    0.0900
     38 H38       -13.7388   -4.5150   58.7262 H       1  ZINC000800038938    0.0900
     39 H39       -15.0364   -3.2765   58.6441 H       1  ZINC000800038938    0.1000
     40 H40       -13.3160   -3.5193   56.5712 H       1  ZINC000800038938    0.0900
     41 H41       -13.7716   -1.8858   57.1450 H       1  ZINC000800038938    0.0800
     42 H42        -9.4421   -0.1670   56.9614 H       1  ZINC000800038938    0.1500
     43 H43        -5.9607   -1.5966   58.9683 H       1  ZINC000800038938    0.1500
     44 H44        -6.9652   -3.8342   59.1483 H       1  ZINC000800038938    0.1500
     45 H45        -8.7769   -0.7479   62.4862 H       1  ZINC000800038938    0.0900
     46 H46       -10.1477   -0.2335   63.5097 H       1  ZINC000800038938    0.0900
@<TRIPOS>BOND
     1     1     2    1
     2     1    29    1
     3     1    30    1
     4     1    31    1
     5     2     3    1
     6     3     4    1
     7     3    28    1
     8     3     5    1
     9     5     6    1
    10     5    32    1
    11     5    33    1
    12     6     7    1
    13     6    34    1
    14     6    35    1
    15     7     8    1
    16     7     9    1
    17     7    28    1
    18     9    10    1
    19    10    11    2
    20    10    12    1
    21    12    13    1
    22    12    17    1
    23    12    14    1
    24    14    15    1
    25    14    36    1
    26    14    37    1
    27    15    16    1
    28    15    38    1
    29    15    39    1
    30    16    17    1
    31    16    40    1
    32    16    41    1
    33    17    18   am
    34    18    19    2
    35    18    20    1
    36    20    26   ar
    37    20    21   ar
    38    21    22   ar
    39    21    42    1
    40    22    23    1
    41    22    24   ar
    42    24    25   ar
    43    24    43    1
    44    25    26   ar
    45    25    44    1
    46    26    27    1
    47    28    45    1
    48    28    46    1
@<TRIPOS>SUBSTRUCTURE
     1 ZINC000800038938        1 TEMP              0 ****  ****    0 ROOT


##########                                Name:    ZINC000274225049
##########                DOCK_Rotatable_Bonds:                   6
##########                         Heavy_Atoms:                  25
##########                    Molecular_Weight:             380.895
##########                DOCK_Rotatable_Bonds:                   6
##########                       Formal_Charge:           0.0200006
##########                     HBond_Acceptors:                   7
##########                        HBond_Donors:                   2
##########                         Heavy_Atoms:                  25
##########                          Grid_Score:          -30.520185
##########                     Grid_vdw_energy:          -30.481966
##########                      Grid_es_energy:           -0.038220
##########           Internal_energy_repulsive:           12.278089

@<TRIPOS>MOLECULE
ZINC000274225049
 46 48 1 0 0
SMALL
USER_CHARGES


@<TRIPOS>ATOM
      1 C1         -7.6246    0.9865   59.2962 C.3     1  ZINC000274225049   -0.1600
      2 C2         -7.5238    0.3878   57.8918 C.3     1  ZINC000274225049    0.2000
      3 H3         -6.5391   -0.0600   57.7576 H       1  ZINC000274225049    0.1100
      4 N4         -7.7197    1.4439   56.8956 N.am    1  ZINC000274225049   -0.7400
      5 C5         -6.6540    2.0128   56.2980 C.2     1  ZINC000274225049    0.7100
      6 O6         -5.5301    1.6486   56.5848 O.2     1  ZINC000274225049   -0.5800
      7 N7         -6.8343    2.9855   55.3827 N.am    1  ZINC000274225049   -0.7500
      8 C8         -5.6760    3.6027   54.7319 C.3     1  ZINC000274225049    0.1500
      9 C9         -5.2363    2.7395   53.5476 C.3     1  ZINC000274225049   -0.1000
     10 H10        -4.8724    1.7756   53.9033 H       1  ZINC000274225049    0.1000
     11 C11        -4.1326    3.4588   52.7524 C.3     1  ZINC000274225049   -0.1100
     12 C12        -3.9525    2.7433   51.3987 C.3     1  ZINC000274225049   -0.5900
     13 S13        -5.5846    2.0040   51.0301 S.o2    1  ZINC000274225049    2.3900
     14 O14        -6.1671    2.6770   49.9224 O.2     1  ZINC000274225049   -0.9300
     15 O15        -5.4677    0.5879   51.0162 O.2     1  ZINC000274225049   -0.9300
     16 C16        -6.4236    2.5318   52.5723 C.3     1  ZINC000274225049   -0.5900
     17 C17        -8.5841   -0.6690   57.7189 C.ar    1  ZINC000274225049   -0.0700
     18 C18        -8.3027   -2.0093   58.0328 C.ar    1  ZINC000274225049   -0.0300
     19 C19        -7.0392   -2.3971   58.5111 C.ar    1  ZINC000274225049   -0.1100
     20 C20        -6.8029   -3.7045   58.8052 C.ar    1  ZINC000274225049   -0.1100
     21 C21        -7.7960   -4.6684   58.6392 C.ar    1  ZINC000274225049   -0.1100
     22 C22        -9.0310   -4.3298   58.1784 C.ar    1  ZINC000274225049   -0.1000
     23 C23        -9.3125   -2.9894   57.8641 C.ar    1  ZINC000274225049   -0.0400
     24 C24       -10.5766   -2.6012   57.3860 C.ar    1  ZINC000274225049   -0.0300
     25 Cl25      -11.8296   -3.7836   57.1720 Cl      1  ZINC000274225049   -0.0600
     26 C26       -10.8127   -1.2920   57.0922 C.ar    1  ZINC000274225049   -0.1000
     27 C27        -9.8210   -0.3287   57.2632 C.ar    1  ZINC000274225049   -0.1000
     28 H28        -6.8577    1.7508   59.4213 H       1  ZINC000274225049    0.0700
     29 H29        -8.6093    1.4343   59.4304 H       1  ZINC000274225049    0.0700
     30 H30        -7.4788    0.2007   60.0374 H       1  ZINC000274225049    0.0800
     31 H31        -8.6165    1.7336   56.6659 H       1  ZINC000274225049    0.4000
     32 H32        -7.7310    3.2769   55.1548 H       1  ZINC000274225049    0.4000
     33 H33        -5.9461    4.5971   54.3763 H       1  ZINC000274225049    0.0800
     34 H34        -4.8573    3.6826   55.4471 H       1  ZINC000274225049    0.0800
     35 H35        -4.4200    4.4965   52.5830 H       1  ZINC000274225049    0.0900
     36 H36        -3.1975    3.4260   53.3115 H       1  ZINC000274225049    0.0900
     37 H37        -3.6785    3.4605   50.6250 H       1  ZINC000274225049    0.1400
     38 H38        -3.1941    1.9647   51.4800 H       1  ZINC000274225049    0.1400
     39 H39        -7.0921    1.7513   52.9356 H       1  ZINC000274225049    0.1400
     40 H40        -6.9647    3.4654   52.4183 H       1  ZINC000274225049    0.1400
     41 H41        -6.2600   -1.6612   58.6443 H       1  ZINC000274225049    0.1300
     42 H42        -5.8311   -4.0000   59.1722 H       1  ZINC000274225049    0.1300
     43 H43        -7.5822   -5.6993   58.8797 H       1  ZINC000274225049    0.1300
     44 H44        -9.7906   -5.0875   58.0545 H       1  ZINC000274225049    0.1300
     45 H45       -11.7842   -0.9960   56.7248 H       1  ZINC000274225049    0.1300
     46 H46       -10.0341    0.7023   57.0227 H       1  ZINC000274225049    0.1300
@<TRIPOS>BOND
     1     1     2    1
     2     1    28    1
     3     1    29    1
     4     1    30    1
     5     2     3    1
     6     2     4    1
     7     2    17    1
     8     4     5   am
     9     4    31    1
    10     5     6    2
    11     5     7   am
    12     7     8    1
    13     7    32    1
    14     8     9    1
    15     8    33    1
    16     8    34    1
    17     9    10    1
    18     9    16    1
    19     9    11    1
    20    11    12    1
    21    11    35    1
    22    11    36    1
    23    12    13    1
    24    12    37    1
    25    12    38    1
    26    13    14    2
    27    13    15    2
    28    13    16    1
    29    16    39    1
    30    16    40    1
    31    17    27   ar
    32    17    18   ar
    33    18    23   ar
    34    18    19   ar
    35    19    20   ar
    36    19    41    1
    37    20    21   ar
    38    20    42    1
    39    21    22   ar
    40    21    43    1
    41    22    23   ar
    42    22    44    1
    43    23    24   ar
    44    24    25    1
    45    24    26   ar
    46    26    27   ar
    47    26    45    1
    48    27    46    1
@<TRIPOS>SUBSTRUCTURE
     1 ZINC000274225049        1 TEMP              0 ****  ****    0 ROOT


##########                                Name:    ZINC000347662449
##########                DOCK_Rotatable_Bonds:                   5
##########                         Heavy_Atoms:                  23
##########                    Molecular_Weight:              327.45
##########                DOCK_Rotatable_Bonds:                   5
##########                       Formal_Charge:                0.03
##########                     HBond_Acceptors:                   5
##########                        HBond_Donors:                   0
##########                         Heavy_Atoms:                  23
##########                          Grid_Score:          -30.479733
##########                     Grid_vdw_energy:          -29.422667
##########                      Grid_es_energy:           -1.057067
##########           Internal_energy_repulsive:            7.493811

@<TRIPOS>MOLECULE
ZINC000347662449
 44 46 1 0 0
SMALL
USER_CHARGES


@<TRIPOS>ATOM
      1 C1        -13.6958    0.2528   61.2626 C.2     1  ZINC000347662449   -0.1800
      2 C2        -12.9927   -0.6613   60.6412 C.2     1  ZINC000347662449   -0.1700
      3 C3        -13.6265   -1.9778   60.2724 C.3     1  ZINC000347662449    0.1600
      4 N4        -13.0499   -2.4623   59.0157 N.am    1  ZINC000347662449   -0.6200
      5 C5        -13.8265   -2.7439   57.8026 C.3     1  ZINC000347662449    0.1100
      6 C6        -12.7939   -2.7953   56.6548 C.3     1  ZINC000347662449   -0.1100
      7 C7        -11.5019   -3.1837   57.4104 C.3     1  ZINC000347662449   -0.1200
      8 H8        -11.3591   -4.2641   57.3915 H       1  ZINC000347662449    0.1400
      9 S9        -10.0696   -2.3442   56.6891 S.3     1  ZINC000347662449    0.0300
     10 C10        -8.7729   -3.1127   57.6018 C.2     1  ZINC000347662449    0.1900
     11 N11        -8.5415   -4.4031   57.6697 N.2     1  ZINC000347662449   -0.4500
     12 C12        -7.4733   -4.6233   58.4547 C.2     1  ZINC000347662449   -0.0100
     13 C13        -7.0180   -3.4376   58.8941 C.2     1  ZINC000347662449   -0.0400
     14 N14        -7.8350   -2.4679   58.3532 N.pl3   1  ZINC000347662449   -0.4000
     15 C15        -7.7274   -1.0834   58.5455 C.ar    1  ZINC000347662449    0.1100
     16 C16        -7.6601   -0.5630   59.8306 C.ar    1  ZINC000347662449   -0.1100
     17 C17        -7.5542    0.8018   60.0170 C.ar    1  ZINC000347662449   -0.1000
     18 C18        -7.5151    1.6490   58.9252 C.ar    1  ZINC000347662449   -0.0800
     19 C19        -7.3989    3.1373   59.1319 C.3     1  ZINC000347662449   -0.1200
     20 C20        -7.5820    1.1334   57.6436 C.ar    1  ZINC000347662449   -0.0700
     21 C21        -7.5390    2.0604   56.4561 C.3     1  ZINC000347662449   -0.1200
     22 C22        -7.6822   -0.2304   57.4508 C.ar    1  ZINC000347662449   -0.1100
     23 C23       -11.7410   -2.7005   58.8239 C.2     1  ZINC000347662449    0.5300
     24 O24       -10.8783   -2.5560   59.6639 O.2     1  ZINC000347662449   -0.4900
     25 H25       -14.7297    0.0629   61.5106 H       1  ZINC000347662449    0.1000
     26 H26       -13.2404    1.1946   61.5309 H       1  ZINC000347662449    0.1000
     27 H27       -11.9588   -0.4714   60.3934 H       1  ZINC000347662449    0.1100
     28 H28       -13.4392   -2.7052   61.0623 H       1  ZINC000347662449    0.0900
     29 H29       -14.7011   -1.8423   60.1507 H       1  ZINC000347662449    0.0900
     30 H30       -14.3358   -3.7032   57.8951 H       1  ZINC000347662449    0.0800
     31 H31       -14.5494   -1.9478   57.6243 H       1  ZINC000347662449    0.0900
     32 H32       -13.0617   -3.5573   55.9230 H       1  ZINC000347662449    0.1100
     33 H33       -12.6897   -1.8198   56.1798 H       1  ZINC000347662449    0.0900
     34 H34        -7.0520   -5.5890   58.6920 H       1  ZINC000347662449    0.1800
     35 H35        -6.1712   -3.2751   59.5444 H       1  ZINC000347662449    0.1800
     36 H36        -7.6909   -1.2242   60.6839 H       1  ZINC000347662449    0.1300
     37 H37        -7.5021    1.2072   61.0167 H       1  ZINC000347662449    0.1300
     38 H38        -6.3463    3.4192   59.1588 H       1  ZINC000347662449    0.0800
     39 H39        -7.8937    3.6577   58.3119 H       1  ZINC000347662449    0.0700
     40 H40        -7.8727    3.4112   60.0746 H       1  ZINC000347662449    0.0700
     41 H41        -6.5041    2.2074   56.1472 H       1  ZINC000347662449    0.0800
     42 H42        -8.1052    1.6235   55.6335 H       1  ZINC000347662449    0.0700
     43 H43        -7.9767    3.0206   56.7288 H       1  ZINC000347662449    0.0800
     44 H44        -7.7341   -0.6325   56.4499 H       1  ZINC000347662449    0.1300
@<TRIPOS>BOND
     1     1     2    2
     2     1    25    1
     3     1    26    1
     4     2     3    1
     5     2    27    1
     6     3     4    1
     7     3    28    1
     8     3    29    1
     9     4    23   am
    10     4     5    1
    11     5     6    1
    12     5    30    1
    13     5    31    1
    14     6     7    1
    15     6    32    1
    16     6    33    1
    17     7     8    1
    18     7     9    1
    19     7    23    1
    20     9    10    1
    21    10    14    1
    22    10    11    2
    23    11    12    1
    24    12    13    2
    25    12    34    1
    26    13    14    1
    27    13    35    1
    28    14    15    1
    29    15    22   ar
    30    15    16   ar
    31    16    17   ar
    32    16    36    1
    33    17    18   ar
    34    17    37    1
    35    18    19    1
    36    18    20   ar
    37    19    38    1
    38    19    39    1
    39    19    40    1
    40    20    21    1
    41    20    22   ar
    42    21    41    1
    43    21    42    1
    44    21    43    1
    45    22    44    1
    46    23    24    2
@<TRIPOS>SUBSTRUCTURE
     1 ZINC000347662449        1 TEMP              0 ****  ****    0 ROOT


##########                                Name:    ZINC000466160459
##########                DOCK_Rotatable_Bonds:                   9
##########                         Heavy_Atoms:                  30
##########                    Molecular_Weight:             420.512
##########                DOCK_Rotatable_Bonds:                   9
##########                       Formal_Charge:          -0.0300007
##########                     HBond_Acceptors:                  10
##########                        HBond_Donors:                   2
##########                         Heavy_Atoms:                  30
##########                          Grid_Score:          -30.478605
##########                     Grid_vdw_energy:          -29.102938
##########                      Grid_es_energy:           -1.375668
##########           Internal_energy_repulsive:           99.342430

@<TRIPOS>MOLECULE
ZINC000466160459
 62 64 1 0 0
SMALL
USER_CHARGES


@<TRIPOS>ATOM
      1 C1         -1.7210    3.4413   54.5456 C.3     1  ZINC000466160459    0.0300
      2 O2         -2.1679    4.7482   54.1791 O.3     1  ZINC000466160459   -0.3900
      3 C3         -3.4245    5.1148   54.7524 C.3     1  ZINC000466160459    0.0500
      4 C4         -4.4918    5.1575   53.6569 C.3     1  ZINC000466160459    0.1200
      5 N5         -4.6508    3.8212   53.0778 N.am    1  ZINC000466160459   -0.7300
      6 C6         -4.5299    3.6446   51.7472 C.2     1  ZINC000466160459    0.5200
      7 O7         -4.2879    4.5918   51.0293 O.2     1  ZINC000466160459   -0.5200
      8 C8         -4.6952    2.2704   51.1512 C.3     1  ZINC000466160459   -0.1300
      9 H9         -3.7261    1.7733   51.1087 H       1  ZINC000466160459    0.1100
     10 C10        -5.2694    2.3922   49.7378 C.3     1  ZINC000466160459   -0.1000
     11 C11        -6.6145    3.1199   49.7928 C.3     1  ZINC000466160459   -0.1500
     12 C12        -7.5954    2.3082   50.6448 C.3     1  ZINC000466160459    0.1600
     13 H13        -7.8041    1.3570   50.1551 H       1  ZINC000466160459    0.0700
     14 C14        -8.8972    3.0934   50.8164 C.3     1  ZINC000466160459   -0.1400
     15 N15        -6.9881    2.0624   51.9599 N.am    1  ZINC000466160459   -0.6200
     16 C16        -7.6424    2.3929   53.0909 C.2     1  ZINC000466160459    0.7100
     17 O17        -8.7459    2.8994   53.0289 O.2     1  ZINC000466160459   -0.5500
     18 N18        -7.0734    2.1617   54.2906 N.am    1  ZINC000466160459   -0.7300
     19 C19        -7.7845    2.5209   55.5200 C.3     1  ZINC000466160459    0.1600
     20 H20        -8.6171    3.1811   55.2769 H       1  ZINC000466160459    0.1300
     21 C21        -6.8251    3.2413   56.4705 C.3     1  ZINC000466160459   -0.1400
     22 C22        -5.8225    2.2169   57.0154 C.3     1  ZINC000466160459   -0.1400
     23 C23        -6.5688    1.2334   57.9176 C.3     1  ZINC000466160459    0.1100
     24 N24        -7.7413    0.7025   57.2336 N.am    1  ZINC000466160459   -0.5200
     25 C25        -8.3048   -0.4846   57.7211 C.2     1  ZINC000466160459    0.2800
     26 N26        -8.0001   -1.6997   57.3306 N.2     1  ZINC000466160459   -0.2600
     27 N27        -8.7842   -2.6025   58.0602 N.pl3   1  ZINC000466160459   -0.3800
     28 C28        -8.7580   -4.0619   57.9348 C.3     1  ZINC000466160459    0.1000
     29 C29        -9.5676   -1.8927   58.8993 C.2     1  ZINC000466160459    0.0700
     30 C30        -9.2897   -0.5818   58.7171 C.2     1  ZINC000466160459   -0.2900
     31 C31        -8.3100    1.2755   56.1743 C.2     1  ZINC000466160459    0.4900
     32 O32        -9.3083    0.7645   55.7122 O.2     1  ZINC000466160459   -0.4700
     33 C33        -5.6536    1.4488   52.0191 C.3     1  ZINC000466160459    0.1200
     34 H34        -0.7612    3.2390   54.0702 H       1  ZINC000466160459    0.0900
     35 H35        -1.6088    3.3861   55.6284 H       1  ZINC000466160459    0.0400
     36 H36        -2.4519    2.7022   54.2179 H       1  ZINC000466160459    0.0400
     37 H37        -3.7076    4.3811   55.5070 H       1  ZINC000466160459    0.0600
     38 H38        -3.3396    6.0980   55.2153 H       1  ZINC000466160459    0.0700
     39 H39        -5.4397    5.4827   54.0855 H       1  ZINC000466160459    0.0800
     40 H40        -4.1860    5.8566   52.8786 H       1  ZINC000466160459    0.0800
     41 H41        -4.8431    3.0635   53.6520 H       1  ZINC000466160459    0.4000
     42 H42        -4.5771    2.9554   49.1119 H       1  ZINC000466160459    0.0700
     43 H43        -5.4118    1.3970   49.3168 H       1  ZINC000466160459    0.0700
     44 H44        -6.4769    4.1060   50.2366 H       1  ZINC000466160459    0.1000
     45 H45        -7.0117    3.2270   48.7834 H       1  ZINC000466160459    0.0700
     46 H46        -9.2872    3.3688   49.8365 H       1  ZINC000466160459    0.0400
     47 H47        -9.6282    2.4753   51.3377 H       1  ZINC000466160459    0.0800
     48 H48        -8.7037    3.9953   51.3970 H       1  ZINC000466160459    0.0600
     49 H49        -6.1930    1.7574   54.3400 H       1  ZINC000466160459    0.3900
     50 H50        -6.2927    4.0244   55.9305 H       1  ZINC000466160459    0.0900
     51 H51        -7.3863    3.6802   57.2954 H       1  ZINC000466160459    0.0900
     52 H52        -5.3640    1.6774   56.1866 H       1  ZINC000466160459    0.0700
     53 H53        -5.0524    2.7297   57.5916 H       1  ZINC000466160459    0.1000
     54 H54        -5.9036    0.4117   58.1828 H       1  ZINC000466160459    0.0900
     55 H55        -6.8834    1.7459   58.8267 H       1  ZINC000466160459    0.0800
     56 H56        -8.0222   -4.4729   58.6261 H       1  ZINC000466160459    0.0700
     57 H57        -9.7430   -4.4646   58.1709 H       1  ZINC000466160459    0.0900
     58 H58        -8.4893   -4.3341   56.9142 H       1  ZINC000466160459    0.0900
     59 H59       -10.2859   -2.2996   59.5957 H       1  ZINC000466160459    0.1800
     60 H60        -9.7493    0.2442   59.2396 H       1  ZINC000466160459    0.1500
     61 H61        -5.7041    0.4274   51.6416 H       1  ZINC000466160459    0.0900
     62 H62        -5.2998    1.4424   53.0500 H       1  ZINC000466160459    0.0700
@<TRIPOS>BOND
     1     1     2    1
     2     1    34    1
     3     1    35    1
     4     1    36    1
     5     2     3    1
     6     3     4    1
     7     3    37    1
     8     3    38    1
     9     4     5    1
    10     4    39    1
    11     4    40    1
    12     5     6   am
    13     5    41    1
    14     6     7    2
    15     6     8    1
    16     8     9    1
    17     8    33    1
    18     8    10    1
    19    10    11    1
    20    10    42    1
    21    10    43    1
    22    11    12    1
    23    11    44    1
    24    11    45    1
    25    12    13    1
    26    12    14    1
    27    12    15    1
    28    14    46    1
    29    14    47    1
    30    14    48    1
    31    15    16   am
    32    15    33    1
    33    16    17    2
    34    16    18   am
    35    18    19    1
    36    18    49    1
    37    19    20    1
    38    19    31    1
    39    19    21    1
    40    21    22    1
    41    21    50    1
    42    21    51    1
    43    22    23    1
    44    22    52    1
    45    22    53    1
    46    23    24    1
    47    23    54    1
    48    23    55    1
    49    24    25    1
    50    24    31   am
    51    25    30    1
    52    25    26    2
    53    26    27    1
    54    27    28    1
    55    27    29    1
    56    28    56    1
    57    28    57    1
    58    28    58    1
    59    29    30    2
    60    29    59    1
    61    30    60    1
    62    31    32    2
    63    33    61    1
    64    33    62    1
@<TRIPOS>SUBSTRUCTURE
     1 ZINC000466160459        1 TEMP              0 ****  ****    0 ROOT


##########                                Name:    ZINC000948289723
##########                DOCK_Rotatable_Bonds:                   6
##########                         Heavy_Atoms:                  24
##########                    Molecular_Weight:             331.415
##########                DOCK_Rotatable_Bonds:                   6
##########                       Formal_Charge:           0.0599999
##########                     HBond_Acceptors:                   6
##########                        HBond_Donors:                   1
##########                         Heavy_Atoms:                  24
##########                          Grid_Score:          -30.476395
##########                     Grid_vdw_energy:          -29.638218
##########                      Grid_es_energy:           -0.838177
##########           Internal_energy_repulsive:            7.747606

@<TRIPOS>MOLECULE
ZINC000948289723
 49 52 1 0 0
SMALL
USER_CHARGES


@<TRIPOS>ATOM
      1 C1         -0.3087    1.3282   45.2977 C.3     1  ZINC000948289723   -0.1400
      2 C2         -1.2377    2.2933   46.0371 C.3     1  ZINC000948289723   -0.1100
      3 C3         -2.5319    1.6356   46.5443 C.3     1  ZINC000948289723   -0.1100
      4 C4         -2.3656    2.4762   47.8212 C.3     1  ZINC000948289723   -0.1400
      5 C5         -2.7096    1.7297   49.0844 C.2     1  ZINC000948289723    0.5400
      6 O6         -2.0051    0.8169   49.4603 O.2     1  ZINC000948289723   -0.5300
      7 N7         -3.8002    2.0765   49.7963 N.am    1  ZINC000948289723   -0.6200
      8 C8         -4.7367    3.1578   49.4569 C.3     1  ZINC000948289723    0.1100
      9 C9         -5.8382    3.1661   50.5377 C.3     1  ZINC000948289723   -0.1100
     10 H10        -5.6141    3.9009   51.3111 H       1  ZINC000948289723    0.1000
     11 C11        -7.2076    3.4410   49.9132 C.3     1  ZINC000948289723   -0.1400
     12 C12        -5.7717    1.7265   51.1126 C.3     1  ZINC000948289723    0.1400
     13 H13        -6.3322    1.0304   50.4887 H       1  ZINC000948289723    0.1200
     14 N14        -6.2520    1.6909   52.4962 N.am    1  ZINC000948289723   -0.7100
     15 C15        -7.4759    1.1989   52.7723 C.2     1  ZINC000948289723    0.6100
     16 O16        -8.1810    0.7833   51.8732 O.2     1  ZINC000948289723   -0.5000
     17 C17        -7.9602    1.1647   54.1652 C.2     1  ZINC000948289723   -0.0900
     18 C18        -7.3387    1.6902   55.2650 C.2     1  ZINC000948289723   -0.1400
     19 C19        -8.2171    1.3839   56.3282 C.2     1  ZINC000948289723    0.0500
     20 C20        -8.0270    1.7315   57.7822 C.3     1  ZINC000948289723   -0.0900
     21 C21        -7.4082    0.6652   58.6883 C.3     1  ZINC000948289723   -0.1600
     22 C22        -6.5922    1.8958   58.2876 C.3     1  ZINC000948289723   -0.1600
     23 N23        -9.2226    0.7434   55.8067 N.2     1  ZINC000948289723   -0.3300
     24 O24        -9.1058    0.6150   54.6104 O.3     1  ZINC000948289723    0.1200
     25 C25        -4.2551    1.4304   51.0408 C.3     1  ZINC000948289723    0.0900
     26 C26        -0.8594    2.5036   47.5127 C.3     1  ZINC000948289723   -0.1200
     27 H27        -0.3374    0.3527   45.7831 H       1  ZINC000948289723    0.0600
     28 H28        -0.6368    1.2291   44.2631 H       1  ZINC000948289723    0.0600
     29 H29         0.7100    1.7154   45.3204 H       1  ZINC000948289723    0.0600
     30 H30        -1.4031    3.2227   45.4920 H       1  ZINC000948289723    0.0900
     31 H31        -3.4135    1.8989   45.9598 H       1  ZINC000948289723    0.0700
     32 H32        -2.4394    0.5626   46.7127 H       1  ZINC000948289723    0.1000
     33 H33        -2.8422    3.4549   47.7648 H       1  ZINC000948289723    0.1100
     34 H34        -4.2135    4.1140   49.4535 H       1  ZINC000948289723    0.0800
     35 H35        -5.1791    2.9716   48.4782 H       1  ZINC000948289723    0.0800
     36 H36        -7.4251    2.6790   49.1648 H       1  ZINC000948289723    0.0600
     37 H37        -7.9725    3.4168   50.6894 H       1  ZINC000948289723    0.0600
     38 H38        -7.2007    4.4231   49.4403 H       1  ZINC000948289723    0.0700
     39 H39        -5.6889    2.0214   53.2136 H       1  ZINC000948289723    0.4100
     40 H40        -6.3965    2.2161   55.3100 H       1  ZINC000948289723    0.1800
     41 H41        -8.7900    2.3787   58.2146 H       1  ZINC000948289723    0.1300
     42 H42        -7.7643    0.6106   59.7171 H       1  ZINC000948289723    0.1100
     43 H43        -7.1387   -0.2877   58.2328 H       1  ZINC000948289723    0.1000
     44 H44        -5.7858    1.7525   57.5683 H       1  ZINC000948289723    0.1000
     45 H45        -6.4114    2.6508   59.0526 H       1  ZINC000948289723    0.1100
     46 H46        -4.0800    0.3553   51.0001 H       1  ZINC000948289723    0.0900
     47 H47        -3.7424    1.8669   51.8979 H       1  ZINC000948289723    0.0800
     48 H48        -0.3096    1.6680   47.9459 H       1  ZINC000948289723    0.0900
     49 H49        -0.3907    3.4677   47.7102 H       1  ZINC000948289723    0.0800
@<TRIPOS>BOND
     1     1     2    1
     2     1    27    1
     3     1    28    1
     4     1    29    1
     5     2    26    1
     6     2     3    1
     7     2    30    1
     8     3     4    1
     9     3    31    1
    10     3    32    1
    11     4     5    1
    12     4    26    1
    13     4    33    1
    14     5     6    2
    15     5     7   am
    16     7    25    1
    17     7     8    1
    18     8     9    1
    19     8    34    1
    20     8    35    1
    21     9    10    1
    22     9    11    1
    23     9    12    1
    24    11    36    1
    25    11    37    1
    26    11    38    1
    27    12    13    1
    28    12    14    1
    29    12    25    1
    30    14    15   am
    31    14    39    1
    32    15    16    2
    33    15    17    1
    34    17    24    1
    35    17    18    2
    36    18    19    1
    37    18    40    1
    38    19    20    1
    39    19    23    2
    40    20    22    1
    41    20    21    1
    42    20    41    1
    43    21    22    1
    44    21    42    1
    45    21    43    1
    46    22    44    1
    47    22    45    1
    48    23    24    1
    49    25    46    1
    50    25    47    1
    51    26    48    1
    52    26    49    1
@<TRIPOS>SUBSTRUCTURE
     1 ZINC000948289723        1 TEMP              0 ****  ****    0 ROOT


##########                                Name:    ZINC001078748831
##########                DOCK_Rotatable_Bonds:                   6
##########                         Heavy_Atoms:                  23
##########                    Molecular_Weight:             333.417
##########                DOCK_Rotatable_Bonds:                   6
##########                       Formal_Charge:           0.0299999
##########                     HBond_Acceptors:                   9
##########                        HBond_Donors:                   2
##########                         Heavy_Atoms:                  23
##########                          Grid_Score:          -30.455948
##########                     Grid_vdw_energy:          -29.168552
##########                      Grid_es_energy:           -1.287396
##########           Internal_energy_repulsive:            5.846257

@<TRIPOS>MOLECULE
ZINC001078748831
 42 45 1 0 0
SMALL
USER_CHARGES


@<TRIPOS>ATOM
      1 C1         -8.6739   -0.3458   52.5105 C.3     1  ZINC001078748831    0.1000
      2 N2         -8.3071    0.9496   51.9328 N.pl3   1  ZINC001078748831   -0.1400
      3 N3         -9.1004    1.9567   51.8440 N.2     1  ZINC001078748831   -0.2900
      4 C4         -8.4635    2.9553   51.2812 C.2     1  ZINC001078748831    0.0400
      5 C5         -7.1640    2.4794   51.0148 C.2     1  ZINC001078748831   -0.0500
      6 C6         -6.0518    3.2208   50.3842 C.2     1  ZINC001078748831    0.6200
      7 O7         -6.2854    4.1830   49.6790 O.2     1  ZINC001078748831   -0.5200
      8 N8         -4.7786    2.8301   50.5910 N.am    1  ZINC001078748831   -0.7000
      9 C9         -3.6762    3.5641   49.9645 C.3     1  ZINC001078748831    0.1500
     10 H10        -3.9091    4.6153   49.7949 H       1  ZINC001078748831    0.1100
     11 C11        -3.0839    2.8560   48.7325 C.3     1  ZINC001078748831   -0.1800
     12 C12        -2.1131    2.1495   49.6962 C.3     1  ZINC001078748831    0.0800
     13 H13        -2.4939    1.2058   50.0869 H       1  ZINC001078748831    0.1000
     14 N14        -0.7426    2.0419   49.1786 N.3     1  ZINC001078748831   -0.6700
     15 C15        -0.4253    0.6550   48.8126 C.3     1  ZINC001078748831    0.1400
     16 C16        -1.0336    0.3378   47.4708 C.2     1  ZINC001078748831    0.0600
     17 N17        -1.1668    1.2080   46.5087 N.2     1  ZINC001078748831   -0.5700
     18 S18        -1.8343    0.4975   45.2909 S.3     1  ZINC001078748831    0.6800
     19 N19        -1.9894   -0.9285   45.9041 N.2     1  ZINC001078748831   -0.5700
     20 C20        -1.5088   -0.9097   47.1164 C.2     1  ZINC001078748831    0.0500
     21 C21        -2.3242    3.3364   50.6416 C.3     1  ZINC001078748831   -0.1000
     22 C22        -1.2910    4.4588   50.7445 C.3     1  ZINC001078748831   -0.1000
     23 C23        -1.7587    4.6382   52.2002 C.3     1  ZINC001078748831   -0.1400
     24 C24        -2.2158    3.1688   52.1575 C.3     1  ZINC001078748831   -0.1200
     25 N25        -7.1474    1.2298   51.4531 N.2     1  ZINC001078748831   -0.2500
     26 H26        -8.4610   -0.3403   53.5794 H       1  ZINC001078748831    0.1000
     27 H27        -9.7374   -0.5259   52.3528 H       1  ZINC001078748831    0.1100
     28 H28        -8.0965   -1.1350   52.0289 H       1  ZINC001078748831    0.1100
     29 H29        -8.8541    3.9388   51.0658 H       1  ZINC001078748831    0.2100
     30 H30        -4.5921    2.0631   51.1546 H       1  ZINC001078748831    0.4100
     31 H31        -3.7819    2.1776   48.2418 H       1  ZINC001078748831    0.0700
     32 H32        -2.5904    3.5334   48.0356 H       1  ZINC001078748831    0.1000
     33 H33        -0.6016    2.6635   48.3964 H       1  ZINC001078748831    0.3500
     34 H34         0.6564    0.5316   48.7596 H       1  ZINC001078748831    0.1000
     35 H35        -0.8316   -0.0213   49.5647 H       1  ZINC001078748831    0.0600
     36 H36        -1.4901   -1.7693   47.7701 H       1  ZINC001078748831    0.2000
     37 H37        -0.2607    4.1145   50.6552 H       1  ZINC001078748831    0.1000
     38 H38        -1.5098    5.3147   50.1061 H       1  ZINC001078748831    0.0700
     39 H39        -0.9438    4.8212   52.9006 H       1  ZINC001078748831    0.0700
     40 H40        -2.5793    5.3471   52.3104 H       1  ZINC001078748831    0.0800
     41 H41        -3.1735    2.9941   52.6479 H       1  ZINC001078748831    0.0700
     42 H42        -1.4455    2.4618   52.4655 H       1  ZINC001078748831    0.0900
@<TRIPOS>BOND
     1     1     2    1
     2     1    26    1
     3     1    27    1
     4     1    28    1
     5     2    25    1
     6     2     3    1
     7     3     4    2
     8     4     5    1
     9     4    29    1
    10     5     6    1
    11     5    25    2
    12     6     7    2
    13     6     8   am
    14     8     9    1
    15     8    30    1
    16     9    10    1
    17     9    21    1
    18     9    11    1
    19    11    12    1
    20    11    31    1
    21    11    32    1
    22    12    13    1
    23    12    14    1
    24    12    21    1
    25    14    15    1
    26    14    33    1
    27    15    16    1
    28    15    34    1
    29    15    35    1
    30    16    20    1
    31    16    17    2
    32    17    18    1
    33    18    19    1
    34    19    20    2
    35    20    36    1
    36    21    24    1
    37    21    22    1
    38    22    23    1
    39    22    37    1
    40    22    38    1
    41    23    24    1
    42    23    39    1
    43    23    40    1
    44    24    41    1
    45    24    42    1
@<TRIPOS>SUBSTRUCTURE
     1 ZINC001078748831        1 TEMP              0 ****  ****    0 ROOT


##########                                Name:    ZINC001217683559
##########                DOCK_Rotatable_Bonds:                   3
##########                         Heavy_Atoms:                  25
##########                    Molecular_Weight:             397.234
##########                DOCK_Rotatable_Bonds:                   3
##########                       Formal_Charge:          0.00999987
##########                     HBond_Acceptors:                   7
##########                        HBond_Donors:                   0
##########                         Heavy_Atoms:                  25
##########                          Grid_Score:          -30.443428
##########                     Grid_vdw_energy:          -29.268867
##########                      Grid_es_energy:           -1.174560
##########           Internal_energy_repulsive:            4.540005

@<TRIPOS>MOLECULE
ZINC001217683559
 38 42 1 0 0
SMALL
USER_CHARGES


@<TRIPOS>ATOM
      1 Br1       -10.1005    4.9612   48.6411 Br      1  ZINC001217683559    0.0100
      2 C2        -11.3109    4.0444   49.7681 C.ar    1  ZINC001217683559   -0.1200
      3 C3        -12.6704    4.0598   49.5000 C.ar    1  ZINC001217683559   -0.0500
      4 C4        -13.5209    3.3734   50.3539 C.ar    1  ZINC001217683559   -0.1500
      5 C5        -12.9925    2.6987   51.4397 C.ar    1  ZINC001217683559    0.1200
      6 N6        -11.6961    2.7005   51.6717 N.ar    1  ZINC001217683559   -0.4400
      7 C7        -10.8480    3.3387   50.8769 C.ar    1  ZINC001217683559    0.2200
      8 C8         -9.3944    3.3128   51.1787 C.2     1  ZINC001217683559    0.2100
      9 N9         -8.8059    3.8736   52.2035 N.2     1  ZINC001217683559   -0.3300
     10 O10        -7.6107    3.6713   52.1664 O.3     1  ZINC001217683559    0.1000
     11 C11        -7.3044    2.9398   51.0834 C.2     1  ZINC001217683559    0.2300
     12 C12        -5.9580    2.4837   50.6812 C.2     1  ZINC001217683559   -0.0600
     13 C13        -5.5390    2.6426   49.3905 C.2     1  ZINC001217683559    0.1800
     14 N14        -4.3047    2.2267   49.0129 N.pl3   1  ZINC001217683559   -0.2900
     15 N15        -3.6172    2.2556   47.7911 N.2     1  ZINC001217683559   -0.3300
     16 C16        -2.4409    1.7126   47.9978 C.2     1  ZINC001217683559    0.2800
     17 C17        -1.3699    1.5373   46.9522 C.3     1  ZINC001217683559   -0.0300
     18 C18        -1.1146    0.0693   46.5719 C.3     1  ZINC001217683559   -0.1200
     19 C19        -0.9836    0.5508   45.1173 C.3     1  ZINC001217683559   -0.1400
     20 C20        -1.8743    1.7402   45.5137 C.3     1  ZINC001217683559   -0.1200
     21 N21        -2.3374    1.3424   49.2666 N.2     1  ZINC001217683559   -0.5300
     22 C22        -3.4579    1.6421   49.9130 C.2     1  ZINC001217683559    0.2900
     23 C23        -3.8648    1.4667   51.2500 C.2     1  ZINC001217683559   -0.1000
     24 C24        -5.0984    1.8870   51.6335 C.2     1  ZINC001217683559   -0.0200
     25 N25        -8.4378    2.7015   50.4494 N.2     1  ZINC001217683559   -0.4300
     26 H26       -13.0587    4.5945   48.6458 H       1  ZINC001217683559    0.1600
     27 H27       -14.5857    3.3661   50.1730 H       1  ZINC001217683559    0.1500
     28 H28       -13.6522    2.1632   52.1065 H       1  ZINC001217683559    0.1800
     29 H29        -6.1952    3.1021   48.6662 H       1  ZINC001217683559    0.1900
     30 H30        -0.4615    2.0953   47.1790 H       1  ZINC001217683559    0.1200
     31 H31        -0.1892   -0.3338   46.9834 H       1  ZINC001217683559    0.0700
     32 H32        -1.9728   -0.5811   46.7409 H       1  ZINC001217683559    0.1000
     33 H33         0.0313    0.8380   44.8422 H       1  ZINC001217683559    0.0800
     34 H34        -1.4464   -0.1187   44.3924 H       1  ZINC001217683559    0.0800
     35 H35        -2.9402    1.5466   45.3934 H       1  ZINC001217683559    0.0900
     36 H36        -1.5623    2.6860   45.0708 H       1  ZINC001217683559    0.0700
     37 H37        -3.2001    1.0053   51.9653 H       1  ZINC001217683559    0.1700
     38 H38        -5.4236    1.7589   52.6553 H       1  ZINC001217683559    0.1700
@<TRIPOS>BOND
     1     1     2    1
     2     2     7   ar
     3     2     3   ar
     4     3     4   ar
     5     3    26    1
     6     4     5   ar
     7     4    27    1
     8     5     6   ar
     9     5    28    1
    10     6     7   ar
    11     7     8    1
    12     8    25    1
    13     8     9    2
    14     9    10    1
    15    10    11    1
    16    11    12    1
    17    11    25    2
    18    12    24    1
    19    12    13    2
    20    13    14    1
    21    13    29    1
    22    14    22    1
    23    14    15    1
    24    15    16    2
    25    16    17    1
    26    16    21    1
    27    17    20    1
    28    17    18    1
    29    17    30    1
    30    18    19    1
    31    18    31    1
    32    18    32    1
    33    19    20    1
    34    19    33    1
    35    19    34    1
    36    20    35    1
    37    20    36    1
    38    21    22    2
    39    22    23    1
    40    23    24    2
    41    23    37    1
    42    24    38    1
@<TRIPOS>SUBSTRUCTURE
     1 ZINC001217683559        1 TEMP              0 ****  ****    0 ROOT


##########                                Name:    ZINC001625935330
##########                DOCK_Rotatable_Bonds:                   5
##########                         Heavy_Atoms:                  25
##########                    Molecular_Weight:             327.385
##########                DOCK_Rotatable_Bonds:                   5
##########                       Formal_Charge:           0.0199995
##########                     HBond_Acceptors:                   4
##########                        HBond_Donors:                   1
##########                         Heavy_Atoms:                  25
##########                          Grid_Score:          -30.437941
##########                     Grid_vdw_energy:          -29.013971
##########                      Grid_es_energy:           -1.423969
##########           Internal_energy_repulsive:            6.543648

@<TRIPOS>MOLECULE
ZINC001625935330
 42 44 1 0 0
SMALL
USER_CHARGES


@<TRIPOS>ATOM
      1 C1         -8.1280    0.5588   60.4282 C.3     1  ZINC001625935330   -0.1600
      2 C2         -8.3377    0.4288   58.9182 C.3     1  ZINC001625935330    0.1800
      3 H3         -9.2786    0.9036   58.6398 H       1  ZINC001625935330    0.1000
      4 N4         -7.2329    1.0839   58.2135 N.am    1  ZINC001625935330   -0.7100
      5 C5         -7.3155    1.3024   56.8862 C.2     1  ZINC001625935330    0.5800
      6 O6         -8.3056    0.9547   56.2736 O.2     1  ZINC001625935330   -0.5300
      7 C7         -6.1988    1.9666   56.1738 C.ar    1  ZINC001625935330    0.0800
      8 C8         -6.0824    1.8277   54.7951 C.ar    1  ZINC001625935330   -0.1000
      9 C9         -5.0235    2.4614   54.1389 C.ar    1  ZINC001625935330    0.0000
     10 C10        -4.8582    2.3427   52.6692 C.ar    1  ZINC001625935330   -0.0600
     11 C11        -5.9756    2.3536   51.8367 C.ar    1  ZINC001625935330   -0.1000
     12 C12        -5.8160    2.2433   50.4703 C.ar    1  ZINC001625935330   -0.1200
     13 C13        -4.5497    2.1222   49.9268 C.ar    1  ZINC001625935330   -0.1100
     14 C14        -3.4369    2.1107   50.7486 C.ar    1  ZINC001625935330   -0.1200
     15 C15        -3.5845    2.2257   52.1159 C.ar    1  ZINC001625935330   -0.1000
     16 C16        -4.1249    3.2097   54.9032 C.ar    1  ZINC001625935330   -0.1400
     17 C17        -4.3119    3.2976   56.2713 C.ar    1  ZINC001625935330    0.1100
     18 N18        -5.3223    2.6931   56.8578 N.ar    1  ZINC001625935330   -0.4600
     19 C19        -8.3799   -1.0295   58.5405 C.ar    1  ZINC001625935330   -0.0900
     20 C20        -7.2102   -1.7672   58.5045 C.ar    1  ZINC001625935330   -0.0800
     21 C21        -7.2399   -3.1068   58.1588 C.ar    1  ZINC001625935330   -0.1100
     22 C22        -8.4377   -3.7158   57.8481 C.ar    1  ZINC001625935330   -0.0700
     23 C23        -9.6224   -2.9772   57.8829 C.ar    1  ZINC001625935330   -0.0200
     24 C24       -10.8698   -3.6028   57.5616 C.1     1  ZINC001625935330    0.2500
     25 N25       -11.8594   -4.0992   57.3067 N.1     1  ZINC001625935330   -0.4100
     26 C26        -9.5858   -1.6272   58.2372 C.ar    1  ZINC001625935330   -0.0600
     27 H27        -8.9501    0.0714   60.9524 H       1  ZINC001625935330    0.0700
     28 H28        -7.1872    0.0840   60.7065 H       1  ZINC001625935330    0.0600
     29 H29        -8.0975    1.6136   60.7013 H       1  ZINC001625935330    0.0700
     30 H30        -6.4420    1.3604   58.7023 H       1  ZINC001625935330    0.4100
     31 H31        -6.7985    1.2396   54.2403 H       1  ZINC001625935330    0.1500
     32 H32        -6.9647    2.4478   52.2600 H       1  ZINC001625935330    0.1300
     33 H33        -6.6813    2.2513   49.8241 H       1  ZINC001625935330    0.1300
     34 H34        -4.4293    2.0357   48.8570 H       1  ZINC001625935330    0.1300
     35 H35        -2.4507    2.0155   50.3190 H       1  ZINC001625935330    0.1300
     36 H36        -2.7151    2.2170   52.7566 H       1  ZINC001625935330    0.1300
     37 H37        -3.2940    3.7134   54.4318 H       1  ZINC001625935330    0.1400
     38 H38        -3.6196    3.8748   56.8664 H       1  ZINC001625935330    0.1700
     39 H39        -6.2695   -1.2953   58.7469 H       1  ZINC001625935330    0.1300
     40 H40        -6.3229   -3.6767   58.1319 H       1  ZINC001625935330    0.1400
     41 H41        -8.4595   -4.7612   57.5781 H       1  ZINC001625935330    0.1400
     42 H42       -10.4984   -1.0503   58.2661 H       1  ZINC001625935330    0.1400
@<TRIPOS>BOND
     1     1     2    1
     2     1    27    1
     3     1    28    1
     4     1    29    1
     5     2     3    1
     6     2     4    1
     7     2    19    1
     8     4     5   am
     9     4    30    1
    10     5     6    2
    11     5     7    1
    12     7    18   ar
    13     7     8   ar
    14     8     9   ar
    15     8    31    1
    16     9    10    1
    17     9    16   ar
    18    10    15   ar
    19    10    11   ar
    20    11    12   ar
    21    11    32    1
    22    12    13   ar
    23    12    33    1
    24    13    14   ar
    25    13    34    1
    26    14    15   ar
    27    14    35    1
    28    15    36    1
    29    16    17   ar
    30    16    37    1
    31    17    18   ar
    32    17    38    1
    33    19    26   ar
    34    19    20   ar
    35    20    21   ar
    36    20    39    1
    37    21    22   ar
    38    21    40    1
    39    22    23   ar
    40    22    41    1
    41    23    24    1
    42    23    26   ar
    43    24    25    3
    44    26    42    1
@<TRIPOS>SUBSTRUCTURE
     1 ZINC001625935330        1 TEMP              0 ****  ****    0 ROOT


##########                                Name:    ZINC001362451754
##########                DOCK_Rotatable_Bonds:                   6
##########                         Heavy_Atoms:                  22
##########                    Molecular_Weight:             339.846
##########                DOCK_Rotatable_Bonds:                   6
##########                       Formal_Charge:         -0.00999987
##########                     HBond_Acceptors:                   7
##########                        HBond_Donors:                   1
##########                         Heavy_Atoms:                  22
##########                          Grid_Score:          -30.437424
##########                     Grid_vdw_energy:          -28.750778
##########                      Grid_es_energy:           -1.686645
##########           Internal_energy_repulsive:           19.497410

@<TRIPOS>MOLECULE
ZINC001362451754
 40 42 1 0 0
SMALL
USER_CHARGES


@<TRIPOS>ATOM
      1 C1         -5.2129    1.3684   51.0632 C.3     1  ZINC001362451754   -0.1700
      2 C2         -5.6280    2.5444   50.1768 C.3     1  ZINC001362451754    0.1400
      3 H3         -5.5359    2.2699   49.1260 H       1  ZINC001362451754    0.0800
      4 C4         -7.0848    2.9477   50.4881 C.3     1  ZINC001362451754   -0.1000
      5 H5         -7.5983    3.2682   49.5815 H       1  ZINC001362451754    0.1000
      6 C6         -7.8346    1.7942   51.1576 C.3     1  ZINC001362451754    0.0900
      7 O7         -9.1792    2.1942   51.4296 O.3     1  ZINC001362451754   -0.5700
      8 C8         -6.9140    4.1355   51.4714 C.3     1  ZINC001362451754   -0.1200
      9 C9         -5.6412    4.8192   50.9185 C.3     1  ZINC001362451754    0.0900
     10 N10        -4.7811    3.7111   50.4649 N.am    1  ZINC001362451754   -0.6100
     11 C11        -3.4398    3.7580   50.3406 C.2     1  ZINC001362451754    0.6100
     12 O12        -2.8388    4.7803   50.6137 O.2     1  ZINC001362451754   -0.5200
     13 C13        -2.7052    2.5776   49.8763 C.2     1  ZINC001362451754   -0.2500
     14 C14        -1.7466    1.9107   50.5860 C.2     1  ZINC001362451754   -0.0500
     15 C15        -1.2148    0.8395   49.9080 C.2     1  ZINC001362451754   -0.1100
     16 C16        -1.7262    0.6283   48.6896 C.2     1  ZINC001362451754   -0.2500
     17 C17        -1.3026   -0.4852   47.7668 C.3     1  ZINC001362451754    0.2100
     18 N18        -1.0323    0.0607   46.4345 N.pl3   1  ZINC001362451754   -0.3700
     19 C19        -0.1321    1.0225   46.1375 C.2     1  ZINC001362451754    0.0700
     20 C20        -0.1861    1.2396   44.8024 C.2     1  ZINC001362451754   -0.1800
     21 Cl21        0.7761    2.3783   43.9128 Cl      1  ZINC001362451754   -0.0400
     22 C22        -1.1590    0.3882   44.2670 C.2     1  ZINC001362451754    0.0700
     23 N23        -1.6665   -0.3185   45.2443 N.2     1  ZINC001362451754   -0.2700
     24 S24        -2.9160    1.7930   48.3169 S.3     1  ZINC001362451754    0.2300
     25 H25        -5.3023    1.6542   52.1113 H       1  ZINC001362451754    0.0600
     26 H26        -5.8614    0.5156   50.8625 H       1  ZINC001362451754    0.0700
     27 H27        -4.1794    1.0978   50.8473 H       1  ZINC001362451754    0.0700
     28 H28        -7.8398    0.9300   50.4932 H       1  ZINC001362451754    0.0500
     29 H29        -7.3377    1.5314   52.0915 H       1  ZINC001362451754    0.0500
     30 H30        -9.7951    2.0220   50.7042 H       1  ZINC001362451754    0.3800
     31 H31        -7.7715    4.8070   51.4256 H       1  ZINC001362451754    0.0900
     32 H32        -6.7525    3.7802   52.4891 H       1  ZINC001362451754    0.0800
     33 H33        -5.1440    5.3883   51.7040 H       1  ZINC001362451754    0.0800
     34 H34        -5.8958    5.4690   50.0812 H       1  ZINC001362451754    0.0800
     35 H35        -1.4347    2.1990   51.5790 H       1  ZINC001362451754    0.1600
     36 H36        -0.4434    0.2121   50.3295 H       1  ZINC001362451754    0.1500
     37 H37        -0.4000   -0.9563   48.1562 H       1  ZINC001362451754    0.1100
     38 H38        -2.0996   -1.2258   47.7012 H       1  ZINC001362451754    0.1100
     39 H39         0.5163    1.5264   46.8389 H       1  ZINC001362451754    0.1800
     40 H40        -1.4423    0.3254   43.2267 H       1  ZINC001362451754    0.1900
@<TRIPOS>BOND
     1     1     2    1
     2     1    25    1
     3     1    26    1
     4     1    27    1
     5     2     3    1
     6     2    10    1
     7     2     4    1
     8     4     5    1
     9     4     6    1
    10     4     8    1
    11     6     7    1
    12     6    28    1
    13     6    29    1
    14     7    30    1
    15     8     9    1
    16     8    31    1
    17     8    32    1
    18     9    10    1
    19     9    33    1
    20     9    34    1
    21    10    11   am
    22    11    12    2
    23    11    13    1
    24    13    24    1
    25    13    14    2
    26    14    15    1
    27    14    35    1
    28    15    16    2
    29    15    36    1
    30    16    17    1
    31    16    24    1
    32    17    18    1
    33    17    37    1
    34    17    38    1
    35    18    23    1
    36    18    19    1
    37    19    20    2
    38    19    39    1
    39    20    21    1
    40    20    22    1
    41    22    23    2
    42    22    40    1
@<TRIPOS>SUBSTRUCTURE
     1 ZINC001362451754        1 TEMP              0 ****  ****    0 ROOT


##########                                Name:    ZINC000549659617
##########                DOCK_Rotatable_Bonds:                   9
##########                         Heavy_Atoms:                  28
##########                    Molecular_Weight:              418.48
##########                DOCK_Rotatable_Bonds:                   9
##########                       Formal_Charge:          0.00999956
##########                     HBond_Acceptors:                   9
##########                        HBond_Donors:                   1
##########                         Heavy_Atoms:                  28
##########                          Grid_Score:          -30.393188
##########                     Grid_vdw_energy:          -30.034121
##########                      Grid_es_energy:           -0.359068
##########           Internal_energy_repulsive:           22.717207

@<TRIPOS>MOLECULE
ZINC000549659617
 53 55 1 0 0
SMALL
USER_CHARGES


@<TRIPOS>ATOM
      1 C1         -1.2768    5.6019   50.4925 C.3     1  ZINC000549659617   -0.1500
      2 C2         -2.2245    4.4524   50.8415 C.3     1  ZINC000549659617   -0.1500
      3 C3         -2.9820    4.0169   49.5855 C.3     1  ZINC000549659617    0.1100
      4 N4         -3.1438    2.5608   49.5932 N.am    1  ZINC000549659617   -0.6100
      5 C5         -4.0186    1.9845   50.4412 C.2     1  ZINC000549659617    0.7100
      6 O6         -4.1541    0.7763   50.4466 O.2     1  ZINC000549659617   -0.5700
      7 N7         -4.7433    2.7476   51.2833 N.am    1  ZINC000549659617   -0.7400
      8 C8         -5.6954    2.1213   52.2039 C.3     1  ZINC000549659617    0.2300
      9 H9         -5.7072    1.0442   52.0371 H       1  ZINC000549659617    0.1100
     10 C10        -5.2811    2.4050   53.6248 C.ar    1  ZINC000549659617   -0.0900
     11 C11        -6.1774    2.2078   54.6583 C.ar    1  ZINC000549659617   -0.0800
     12 C12        -5.7974    2.4682   55.9619 C.ar    1  ZINC000549659617   -0.1100
     13 C13        -4.5211    2.9251   56.2315 C.ar    1  ZINC000549659617   -0.0700
     14 C14        -3.6243    3.1215   55.1978 C.ar    1  ZINC000549659617   -0.1800
     15 C15        -2.2330    3.6202   55.4917 C.3     1  ZINC000549659617    0.5100
     16 F16        -1.9232    4.6752   54.6266 F       1  ZINC000549659617   -0.1800
     17 F17        -2.1682    4.0682   56.8155 F       1  ZINC000549659617   -0.1700
     18 F18        -1.3159    2.5802   55.3060 F       1  ZINC000549659617   -0.1700
     19 C19        -4.0028    2.8572   53.8950 C.ar    1  ZINC000549659617   -0.0500
     20 C20        -7.0937    2.6910   51.9568 C.3     1  ZINC000549659617   -0.1700
     21 C21        -7.6249    2.6623   50.5223 C.3     1  ZINC000549659617   -0.1700
     22 C22        -8.1994    1.7067   51.5700 C.3     1  ZINC000549659617   -0.1800
     23 C23        -2.3548    1.7313   48.6791 C.3     1  ZINC000549659617    0.1700
     24 H24        -2.5595    0.6765   48.8619 H       1  ZINC000549659617    0.1100
     25 C25        -0.8550    2.0178   48.8691 C.3     1  ZINC000549659617   -0.1400
     26 C26        -0.0805    1.4032   47.6862 C.3     1  ZINC000549659617   -0.5900
     27 S27        -1.2638    1.4028   46.2913 S.o2    1  ZINC000549659617    2.3900
     28 O28        -0.8373    2.3397   45.3117 O.2     1  ZINC000549659617   -0.9300
     29 O29        -1.5455    0.0623   45.9131 O.2     1  ZINC000549659617   -0.9400
     30 C30        -2.6935    2.0909   47.2095 C.3     1  ZINC000549659617   -0.6100
     31 H31        -0.7372    5.9122   51.3872 H       1  ZINC000549659617    0.0600
     32 H32        -0.5658    5.2696   49.7362 H       1  ZINC000549659617    0.0600
     33 H33        -1.8526    6.4427   50.1055 H       1  ZINC000549659617    0.0600
     34 H34        -1.6488    3.6116   51.2284 H       1  ZINC000549659617    0.0700
     35 H35        -2.9356    4.7847   51.5978 H       1  ZINC000549659617    0.0700
     36 H36        -3.9632    4.4915   49.5701 H       1  ZINC000549659617    0.0800
     37 H37        -2.4201    4.3153   48.7005 H       1  ZINC000549659617    0.0900
     38 H38        -4.6343    3.7115   51.2799 H       1  ZINC000549659617    0.4000
     39 H39        -7.1746    1.8508   54.4476 H       1  ZINC000549659617    0.1300
     40 H40        -6.4979    2.3148   56.7694 H       1  ZINC000549659617    0.1400
     41 H41        -4.2245    3.1291   57.2498 H       1  ZINC000549659617    0.1400
     42 H42        -3.3023    3.0105   53.0875 H       1  ZINC000549659617    0.1400
     43 H43        -7.3719    3.5409   52.5800 H       1  ZINC000549659617    0.1100
     44 H44        -8.2527    3.4937   50.2014 H       1  ZINC000549659617    0.0900
     45 H45        -6.9782    2.2376   49.7545 H       1  ZINC000549659617    0.0900
     46 H46        -7.9305    0.6533   51.4915 H       1  ZINC000549659617    0.1200
     47 H47        -9.2050    1.9092   51.9384 H       1  ZINC000549659617    0.0900
     48 H48        -0.6881    3.0946   48.8964 H       1  ZINC000549659617    0.1100
     49 H49        -0.5121    1.5720   49.8028 H       1  ZINC000549659617    0.0900
     50 H50         0.7891    2.0144   47.4446 H       1  ZINC000549659617    0.1400
     51 H51         0.2258    0.3843   47.9229 H       1  ZINC000549659617    0.1400
     52 H52        -3.6212    1.6116   46.8967 H       1  ZINC000549659617    0.1400
     53 H53        -2.7525    3.1716   47.0800 H       1  ZINC000549659617    0.1600
@<TRIPOS>BOND
     1     1     2    1
     2     1    31    1
     3     1    32    1
     4     1    33    1
     5     2     3    1
     6     2    34    1
     7     2    35    1
     8     3     4    1
     9     3    36    1
    10     3    37    1
    11     4     5   am
    12     4    23    1
    13     5     6    2
    14     5     7   am
    15     7     8    1
    16     7    38    1
    17     8     9    1
    18     8    10    1
    19     8    20    1
    20    10    19   ar
    21    10    11   ar
    22    11    12   ar
    23    11    39    1
    24    12    13   ar
    25    12    40    1
    26    13    14   ar
    27    13    41    1
    28    14    15    1
    29    14    19   ar
    30    15    16    1
    31    15    17    1
    32    15    18    1
    33    19    42    1
    34    20    22    1
    35    20    21    1
    36    20    43    1
    37    21    22    1
    38    21    44    1
    39    21    45    1
    40    22    46    1
    41    22    47    1
    42    23    24    1
    43    23    30    1
    44    23    25    1
    45    25    26    1
    46    25    48    1
    47    25    49    1
    48    26    27    1
    49    26    50    1
    50    26    51    1
    51    27    28    2
    52    27    29    2
    53    27    30    1
    54    30    52    1
    55    30    53    1
@<TRIPOS>SUBSTRUCTURE
     1 ZINC000549659617        1 TEMP              0 ****  ****    0 ROOT


##########                                Name:    ZINC000337709254
##########                DOCK_Rotatable_Bonds:                   7
##########                         Heavy_Atoms:                  22
##########                    Molecular_Weight:              329.42
##########                DOCK_Rotatable_Bonds:                   7
##########                       Formal_Charge:           0.0300004
##########                     HBond_Acceptors:                   8
##########                        HBond_Donors:                   2
##########                         Heavy_Atoms:                  22
##########                          Grid_Score:          -30.384890
##########                     Grid_vdw_energy:          -28.777428
##########                      Grid_es_energy:           -1.607463
##########           Internal_energy_repulsive:           14.254565

@<TRIPOS>MOLECULE
ZINC000337709254
 45 46 1 0 0
SMALL
USER_CHARGES


@<TRIPOS>ATOM
      1 C1         -7.1165    0.0859   50.6974 C.3     1  ZINC000337709254   -0.6700
      2 S2         -7.2585    1.7597   51.3821 S.o2    1  ZINC000337709254    2.6100
      3 O3         -8.5836    2.2498   51.2302 O.2     1  ZINC000337709254   -0.9500
      4 O4         -6.5835    1.8469   52.6296 O.2     1  ZINC000337709254   -0.9500
      5 N5         -6.3553    2.7013   50.3625 N.am    1  ZINC000337709254   -1.1200
      6 C6         -4.9271    2.4273   50.1850 C.3     1  ZINC000337709254    0.1200
      7 C7         -4.1092    3.4580   50.9660 C.3     1  ZINC000337709254   -0.1100
      8 H8         -4.7106    4.3434   51.1729 H       1  ZINC000337709254    0.1100
      9 C9         -3.5789    2.8426   52.2848 C.3     1  ZINC000337709254   -0.1200
     10 C10        -2.3512    3.7304   52.6067 C.3     1  ZINC000337709254   -0.1200
     11 C11        -1.7159    4.0114   51.2293 C.3     1  ZINC000337709254   -0.1400
     12 C12        -2.8355    3.8409   50.1845 C.3     1  ZINC000337709254    0.1500
     13 H13        -2.9901    4.7765   49.6469 H       1  ZINC000337709254    0.1000
     14 N14        -2.4856    2.7739   49.2438 N.am    1  ZINC000337709254   -0.7200
     15 C15        -1.5314    2.9806   48.3147 C.2     1  ZINC000337709254    0.5300
     16 O16        -0.9633    4.0507   48.2565 O.2     1  ZINC000337709254   -0.5100
     17 C17        -1.1702    1.8823   47.3481 C.3     1  ZINC000337709254    0.0200
     18 C18         0.0987    2.2126   46.6793 C.1     1  ZINC000337709254    0.2000
     19 N19         1.0781    2.4676   46.1630 N.1     1  ZINC000337709254   -0.3900
     20 C20        -1.0225    0.5600   48.1070 C.3     1  ZINC000337709254   -0.1500
     21 C21        -0.7333   -0.5633   47.1079 C.3     1  ZINC000337709254    0.0600
     22 O22        -1.7867   -0.6247   46.1442 O.3     1  ZINC000337709254   -0.3700
     23 C23        -1.9409    0.5675   45.3715 C.3     1  ZINC000337709254    0.0600
     24 C24        -2.2785    1.7363   46.3009 C.3     1  ZINC000337709254   -0.1300
     25 H25        -7.5078    0.0751   49.6801 H       1  ZINC000337709254    0.1300
     26 H26        -6.0688   -0.2147   50.6869 H       1  ZINC000337709254    0.1300
     27 H27        -7.6876   -0.6086   51.3136 H       1  ZINC000337709254    0.1300
     28 H28        -6.7718    3.4343   49.8827 H       1  ZINC000337709254    0.4200
     29 H29        -4.7001    1.4276   50.5551 H       1  ZINC000337709254    0.0600
     30 H30        -4.6741    2.4892   49.1266 H       1  ZINC000337709254    0.0900
     31 H31        -4.3270    2.9170   53.0740 H       1  ZINC000337709254    0.0800
     32 H32        -3.2771    1.8062   52.1335 H       1  ZINC000337709254    0.0700
     33 H33        -2.6666    4.6610   53.0785 H       1  ZINC000337709254    0.0700
     34 H34        -1.6508    3.1950   53.2478 H       1  ZINC000337709254    0.0700
     35 H35        -1.3297    5.0303   51.1972 H       1  ZINC000337709254    0.0800
     36 H36        -0.9122    3.3009   51.0369 H       1  ZINC000337709254    0.0700
     37 H37        -2.9408    1.9185   49.2894 H       1  ZINC000337709254    0.4000
     38 H38        -0.1987    0.6373   48.8166 H       1  ZINC000337709254    0.0900
     39 H39        -1.9465    0.3422   48.6426 H       1  ZINC000337709254    0.1100
     40 H40         0.2114   -0.3652   46.6015 H       1  ZINC000337709254    0.0500
     41 H41        -0.6696   -1.5137   47.6378 H       1  ZINC000337709254    0.1100
     42 H42        -1.0119    0.7804   44.8424 H       1  ZINC000337709254    0.0500
     43 H43        -2.7471    0.4317   44.6506 H       1  ZINC000337709254    0.1100
     44 H44        -3.2279    1.5422   46.8000 H       1  ZINC000337709254    0.1100
     45 H45        -2.3530    2.6547   45.7188 H       1  ZINC000337709254    0.0900
@<TRIPOS>BOND
     1     1     2    1
     2     1    25    1
     3     1    26    1
     4     1    27    1
     5     2     3    2
     6     2     4    2
     7     2     5   am
     8     5     6    1
     9     5    28    1
    10     6     7    1
    11     6    29    1
    12     6    30    1
    13     7     8    1
    14     7    12    1
    15     7     9    1
    16     9    10    1
    17     9    31    1
    18     9    32    1
    19    10    11    1
    20    10    33    1
    21    10    34    1
    22    11    12    1
    23    11    35    1
    24    11    36    1
    25    12    13    1
    26    12    14    1
    27    14    15   am
    28    14    37    1
    29    15    16    2
    30    15    17    1
    31    17    24    1
    32    17    18    1
    33    17    20    1
    34    18    19    3
    35    20    21    1
    36    20    38    1
    37    20    39    1
    38    21    22    1
    39    21    40    1
    40    21    41    1
    41    22    23    1
    42    23    24    1
    43    23    42    1
    44    23    43    1
    45    24    44    1
    46    24    45    1
@<TRIPOS>SUBSTRUCTURE
     1 ZINC000337709254        1 TEMP              0 ****  ****    0 ROOT


##########                                Name:    ZINC000642096826
##########                DOCK_Rotatable_Bonds:                  12
##########                         Heavy_Atoms:                  25
##########                    Molecular_Weight:             345.485
##########                DOCK_Rotatable_Bonds:                  12
##########                       Formal_Charge:          0.00999919
##########                     HBond_Acceptors:                   5
##########                        HBond_Donors:                   1
##########                         Heavy_Atoms:                  25
##########                          Grid_Score:          -30.380440
##########                     Grid_vdw_energy:          -26.518681
##########                      Grid_es_energy:           -3.861759
##########           Internal_energy_repulsive:           20.856146

@<TRIPOS>MOLECULE
ZINC000642096826
 56 57 1 0 0
SMALL
USER_CHARGES


@<TRIPOS>ATOM
      1 C1        -16.0649   -2.0780   57.1070 C.3     1  ZINC000642096826   -0.1500
      2 C2        -14.6973   -2.5033   57.6455 C.3     1  ZINC000642096826   -0.1400
      3 C3        -13.9708   -3.3387   56.5895 C.3     1  ZINC000642096826    0.1200
      4 N4        -12.6693   -2.7326   56.2980 N.am    1  ZINC000642096826   -0.6200
      5 C5        -12.5892   -1.5454   55.4433 C.3     1  ZINC000642096826    0.1100
      6 C6        -12.3256   -0.3111   56.3082 C.3     1  ZINC000642096826   -0.1400
      7 C7        -13.4092    0.7365   56.0455 C.3     1  ZINC000642096826   -0.1500
      8 C8        -11.5458   -3.2669   56.8162 C.2     1  ZINC000642096826    0.5200
      9 O9        -11.6120   -4.2506   57.5225 O.2     1  ZINC000642096826   -0.5200
     10 C10       -10.2071   -2.6423   56.5177 C.3     1  ZINC000642096826    0.0400
     11 N11        -9.3846   -2.6421   57.7348 N.3     1  ZINC000642096826   -0.5200
     12 C12        -8.5154   -3.8254   57.7829 C.3     1  ZINC000642096826    0.0100
     13 C13        -8.5974   -1.4061   57.8380 C.3     1  ZINC000642096826    0.0900
     14 C14        -8.7344   -0.8379   59.2270 C.ar    1  ZINC000642096826   -0.0500
     15 C15        -7.6545   -0.8645   60.0916 C.ar    1  ZINC000642096826   -0.1000
     16 C16        -7.7733   -0.3465   61.3647 C.ar    1  ZINC000642096826   -0.0600
     17 C17        -8.9862    0.2058   61.7797 C.ar    1  ZINC000642096826   -0.1400
     18 C18        -9.1205    0.7632   63.1424 C.2     1  ZINC000642096826    0.5600
     19 O19       -10.0885    0.4817   63.8216 O.2     1  ZINC000642096826   -0.5300
     20 N20        -8.1697    1.5835   63.6316 N.am    1  ZINC000642096826   -0.7000
     21 C21        -8.3036    2.1373   64.9814 C.3     1  ZINC000642096826    0.0800
     22 C22        -7.4645    3.3694   65.3260 C.3     1  ZINC000642096826   -0.1900
     23 C23        -8.9745    3.5053   65.1203 C.3     1  ZINC000642096826   -0.1900
     24 C24       -10.0715    0.2299   60.9024 C.ar    1  ZINC000642096826   -0.0900
     25 C25        -9.9377   -0.2868   59.6302 C.ar    1  ZINC000642096826   -0.1200
     26 H26       -15.9306   -1.4839   56.2031 H       1  ZINC000642096826    0.0600
     27 H27       -16.6556   -2.9641   56.8751 H       1  ZINC000642096826    0.0600
     28 H28       -16.5825   -1.4829   57.8594 H       1  ZINC000642096826    0.0600
     29 H29       -14.1065   -1.6172   57.8774 H       1  ZINC000642096826    0.0600
     30 H30       -14.8315   -3.0974   58.5495 H       1  ZINC000642096826    0.0600
     31 H31       -13.8241   -4.3513   56.9651 H       1  ZINC000642096826    0.0800
     32 H32       -14.5683   -3.3721   55.6785 H       1  ZINC000642096826    0.0800
     33 H33       -11.7766   -1.6675   54.7271 H       1  ZINC000642096826    0.0800
     34 H34       -13.5299   -1.4194   54.9073 H       1  ZINC000642096826    0.0800
     35 H35       -12.3419   -0.5947   57.3605 H       1  ZINC000642096826    0.0700
     36 H36       -11.3496    0.1053   56.0591 H       1  ZINC000642096826    0.0700
     37 H37       -13.2214    1.6159   56.6615 H       1  ZINC000642096826    0.0600
     38 H38       -13.3929    1.0201   54.9930 H       1  ZINC000642096826    0.0600
     39 H39       -14.3852    0.3201   56.2945 H       1  ZINC000642096826    0.0600
     40 H40        -9.7041   -3.2158   55.7393 H       1  ZINC000642096826    0.0600
     41 H41       -10.3525   -1.6171   56.1773 H       1  ZINC000642096826    0.1000
     42 H42        -7.8557   -3.8271   56.9153 H       1  ZINC000642096826    0.0200
     43 H43        -7.9175   -3.8002   58.6940 H       1  ZINC000642096826    0.0700
     44 H44        -9.1281   -4.7268   57.7754 H       1  ZINC000642096826    0.0900
     45 H45        -7.5489   -1.6253   57.6369 H       1  ZINC000642096826    0.0500
     46 H46        -8.9630   -0.6808   57.1111 H       1  ZINC000642096826    0.0900
     47 H47        -6.7166   -1.2922   59.7693 H       1  ZINC000642096826    0.1300
     48 H48        -6.9299   -0.3685   62.0389 H       1  ZINC000642096826    0.1400
     49 H49        -7.3967    1.8073   63.0901 H       1  ZINC000642096826    0.4000
     50 H50        -8.4775    1.4088   65.7732 H       1  ZINC000642096826    0.1400
     51 H51        -7.0859    3.4515   66.3448 H       1  ZINC000642096826    0.1000
     52 H52        -6.8127    3.7680   64.5485 H       1  ZINC000642096826    0.1000
     53 H53        -9.3162    3.9934   64.2075 H       1  ZINC000642096826    0.1000
     54 H54        -9.5894    3.6770   66.0039 H       1  ZINC000642096826    0.1100
     55 H55       -11.0128    0.6556   61.2175 H       1  ZINC000642096826    0.1200
     56 H56       -10.7766   -0.2684   58.9502 H       1  ZINC000642096826    0.1300
@<TRIPOS>BOND
     1     1     2    1
     2     1    26    1
     3     1    27    1
     4     1    28    1
     5     2     3    1
     6     2    29    1
     7     2    30    1
     8     3     4    1
     9     3    31    1
    10     3    32    1
    11     4     5    1
    12     4     8   am
    13     5     6    1
    14     5    33    1
    15     5    34    1
    16     6     7    1
    17     6    35    1
    18     6    36    1
    19     7    37    1
    20     7    38    1
    21     7    39    1
    22     8     9    2
    23     8    10    1
    24    10    11    1
    25    10    40    1
    26    10    41    1
    27    11    12    1
    28    11    13    1
    29    12    42    1
    30    12    43    1
    31    12    44    1
    32    13    14    1
    33    13    45    1
    34    13    46    1
    35    14    25   ar
    36    14    15   ar
    37    15    16   ar
    38    15    47    1
    39    16    17   ar
    40    16    48    1
    41    17    18    1
    42    17    24   ar
    43    18    19    2
    44    18    20   am
    45    20    21    1
    46    20    49    1
    47    21    23    1
    48    21    22    1
    49    21    50    1
    50    22    23    1
    51    22    51    1
    52    22    52    1
    53    23    53    1
    54    23    54    1
    55    24    25   ar
    56    24    55    1
    57    25    56    1
@<TRIPOS>SUBSTRUCTURE
     1 ZINC000642096826        1 TEMP              0 ****  ****    0 ROOT


##########                                Name:    ZINC000151850193
##########                DOCK_Rotatable_Bonds:                  11
##########                         Heavy_Atoms:                  23
##########                    Molecular_Weight:             328.452
##########                DOCK_Rotatable_Bonds:                  11
##########                       Formal_Charge:            0.039999
##########                     HBond_Acceptors:                   6
##########                        HBond_Donors:                   2
##########                         Heavy_Atoms:                  23
##########                          Grid_Score:          -30.357151
##########                     Grid_vdw_energy:          -29.774803
##########                      Grid_es_energy:           -0.582348
##########           Internal_energy_repulsive:           52.882324

@<TRIPOS>MOLECULE
ZINC000151850193
 55 55 1 0 0
SMALL
USER_CHARGES


@<TRIPOS>ATOM
      1 C1         -0.7420    4.6981   49.4703 C.3     1  ZINC000151850193   -0.1500
      2 C2         -0.6806    3.7035   48.3093 C.3     1  ZINC000151850193   -0.1000
      3 C3         -1.5315    2.4766   48.6432 C.3     1  ZINC000151850193   -0.0800
      4 C4         -1.1815    1.8623   50.0001 C.3     1  ZINC000151850193   -0.1000
      5 C5          0.3183    1.5642   50.0533 C.3     1  ZINC000151850193   -0.1500
      6 C6         -3.0391    2.6975   48.4355 C.3     1  ZINC000151850193    0.1400
      7 H7         -3.3423    3.7416   48.5137 H       1  ZINC000151850193    0.1000
      8 N8         -3.8790    1.7999   49.2324 N.am    1  ZINC000151850193   -0.7000
      9 C9         -4.4716    2.2516   50.3555 C.2     1  ZINC000151850193    0.5200
     10 O10        -4.3081    3.4007   50.7073 O.2     1  ZINC000151850193   -0.5300
     11 C11        -5.3370    1.3288   51.1743 C.3     1  ZINC000151850193   -0.1500
     12 C12        -6.8089    1.5816   50.8423 C.3     1  ZINC000151850193    0.1500
     13 N13        -7.6441    0.6131   51.5569 N.am    1  ZINC000151850193   -0.7100
     14 C14        -8.8643    0.9740   52.0012 C.2     1  ZINC000151850193    0.6500
     15 O15        -9.2710    2.1029   51.8104 O.2     1  ZINC000151850193   -0.5600
     16 O16        -9.6325    0.0834   52.6566 O.3     1  ZINC000151850193   -0.3700
     17 C17       -10.9191    0.5521   53.1396 C.3     1  ZINC000151850193    0.1400
     18 C18       -11.7737    1.0072   51.9550 C.3     1  ZINC000151850193   -0.1800
     19 C19       -11.6320   -0.5838   53.8761 C.3     1  ZINC000151850193   -0.1400
     20 C20       -10.7074    1.7268   54.0969 C.3     1  ZINC000151850193   -0.1800
     21 C21        -2.8291    2.2240   46.9876 C.3     1  ZINC000151850193   -0.1700
     22 C22        -1.6048    1.4485   47.5019 C.3     1  ZINC000151850193    0.0700
     23 H23        -0.7499    1.4843   46.8265 H       1  ZINC000151850193    0.0800
     24 O24        -1.9096    0.1234   47.9414 O.3     1  ZINC000151850193   -0.3700
     25 C25        -1.5208   -0.8982   47.0210 C.3     1  ZINC000151850193    0.0300
     26 H26        -1.7707    5.0302   49.6102 H       1  ZINC000151850193    0.0600
     27 H27        -0.3890    4.2151   50.3815 H       1  ZINC000151850193    0.0600
     28 H28        -0.1100    5.5575   49.2464 H       1  ZINC000151850193    0.0600
     29 H29        -1.0639    4.1764   47.4051 H       1  ZINC000151850193    0.0700
     30 H30         0.3527    3.3961   48.1485 H       1  ZINC000151850193    0.0700
     31 H31        -1.4411    2.5626   50.7939 H       1  ZINC000151850193    0.0700
     32 H32        -1.7409    0.9366   50.1348 H       1  ZINC000151850193    0.0700
     33 H33         0.5654    0.8091   49.3070 H       1  ZINC000151850193    0.0500
     34 H34         0.8776    2.4766   49.8459 H       1  ZINC000151850193    0.0500
     35 H35         0.5804    1.1946   51.0446 H       1  ZINC000151850193    0.0500
     36 H36        -4.0088    0.8806   48.9517 H       1  ZINC000151850193    0.4100
     37 H37        -5.0849    0.2939   50.9428 H       1  ZINC000151850193    0.1000
     38 H38        -5.1663    1.5159   52.2345 H       1  ZINC000151850193    0.1000
     39 H39        -7.0819    2.5918   51.1475 H       1  ZINC000151850193    0.0800
     40 H40        -6.9632    1.4722   49.7688 H       1  ZINC000151850193    0.0800
     41 H41        -7.3189   -0.2878   51.7104 H       1  ZINC000151850193    0.4100
     42 H42       -11.9245    0.1703   51.2730 H       1  ZINC000151850193    0.0600
     43 H43       -12.7394    1.3591   52.3176 H       1  ZINC000151850193    0.0700
     44 H44       -11.2658    1.8165   51.4302 H       1  ZINC000151850193    0.0900
     45 H45       -11.0232   -0.9081   54.7201 H       1  ZINC000151850193    0.0700
     46 H46       -12.5978   -0.2320   54.2388 H       1  ZINC000151850193    0.0800
     47 H47       -11.7828   -1.4207   53.1942 H       1  ZINC000151850193    0.0700
     48 H48       -10.1995    2.5360   53.5722 H       1  ZINC000151850193    0.0900
     49 H49       -11.6732    2.0787   54.4594 H       1  ZINC000151850193    0.0700
     50 H50       -10.0985    1.4025   54.9409 H       1  ZINC000151850193    0.0600
     51 H51        -3.6286    1.5820   46.6178 H       1  ZINC000151850193    0.0800
     52 H52        -2.5776    3.0289   46.2970 H       1  ZINC000151850193    0.1000
     53 H53        -2.0358   -0.7475   46.0722 H       1  ZINC000151850193    0.0400
     54 H54        -0.4435   -0.8522   46.8609 H       1  ZINC000151850193    0.0400
     55 H55        -1.7864   -1.8739   47.4276 H       1  ZINC000151850193    0.0900
@<TRIPOS>BOND
     1     1     2    1
     2     1    26    1
     3     1    27    1
     4     1    28    1
     5     2     3    1
     6     2    29    1
     7     2    30    1
     8     3    22    1
     9     3     4    1
    10     3     6    1
    11     4     5    1
    12     4    31    1
    13     4    32    1
    14     5    33    1
    15     5    34    1
    16     5    35    1
    17     6     7    1
    18     6     8    1
    19     6    21    1
    20     8     9   am
    21     8    36    1
    22     9    10    2
    23     9    11    1
    24    11    12    1
    25    11    37    1
    26    11    38    1
    27    12    13    1
    28    12    39    1
    29    12    40    1
    30    13    14   am
    31    13    41    1
    32    14    15    2
    33    14    16    1
    34    16    17    1
    35    17    18    1
    36    17    19    1
    37    17    20    1
    38    18    42    1
    39    18    43    1
    40    18    44    1
    41    19    45    1
    42    19    46    1
    43    19    47    1
    44    20    48    1
    45    20    49    1
    46    20    50    1
    47    21    22    1
    48    21    51    1
    49    21    52    1
    50    22    23    1
    51    22    24    1
    52    24    25    1
    53    25    53    1
    54    25    54    1
    55    25    55    1
@<TRIPOS>SUBSTRUCTURE
     1 ZINC000151850193        1 TEMP              0 ****  ****    0 ROOT


##########                                Name:    ZINC000301324012
##########                DOCK_Rotatable_Bonds:                   7
##########                         Heavy_Atoms:                  28
##########                    Molecular_Weight:               415.9
##########                DOCK_Rotatable_Bonds:                   7
##########                       Formal_Charge:          -0.0100002
##########                     HBond_Acceptors:                   8
##########                        HBond_Donors:                   2
##########                         Heavy_Atoms:                  28
##########                          Grid_Score:          -30.331791
##########                     Grid_vdw_energy:          -27.439726
##########                      Grid_es_energy:           -2.892065
##########           Internal_energy_repulsive:           14.734284

@<TRIPOS>MOLECULE
ZINC000301324012
 46 48 1 0 0
SMALL
USER_CHARGES


@<TRIPOS>ATOM
      1 C1         -1.8127    3.6197   55.1724 C.3     1  ZINC000301324012   -0.1600
      2 C2         -2.9140    3.6744   54.1116 C.3     1  ZINC000301324012    0.2000
      3 H3         -3.0622    4.7068   53.7949 H       1  ZINC000301324012    0.1100
      4 N4         -2.5216    2.8612   52.9580 N.am    1  ZINC000301324012   -0.7100
      5 C5         -2.8451    3.2592   51.7117 C.2     1  ZINC000301324012    0.5500
      6 O6         -3.4611    4.2937   51.5446 O.2     1  ZINC000301324012   -0.5300
      7 C7         -2.4506    2.4375   50.5476 C.ar    1  ZINC000301324012   -0.0700
      8 C8         -3.0169    2.6790   49.2949 C.ar    1  ZINC000301324012   -0.1100
      9 C9         -2.6441    1.9090   48.2127 C.ar    1  ZINC000301324012   -0.0200
     10 C10        -1.7112    0.8989   48.3671 C.ar    1  ZINC000301324012   -0.6600
     11 S11        -1.2409   -0.0803   46.9797 S.o2    1  ZINC000301324012    2.6900
     12 O12        -1.1035   -1.4119   47.4566 O.2     1  ZINC000301324012   -0.9400
     13 O13        -2.1164    0.2792   45.9198 O.2     1  ZINC000301324012   -0.9400
     14 N14         0.2729    0.4115   46.5231 N.am    1  ZINC000301324012   -1.0500
     15 C15         0.4893    1.7360   46.1331 C.ar    1  ZINC000301324012    0.1600
     16 C16        -0.0516    2.2087   44.9450 C.ar    1  ZINC000301324012   -0.1600
     17 C17         0.1640    3.5186   44.5622 C.ar    1  ZINC000301324012   -0.0800
     18 C18         0.9179    4.3589   45.3604 C.ar    1  ZINC000301324012   -0.1200
     19 C19         1.4585    3.8920   46.5449 C.ar    1  ZINC000301324012   -0.0900
     20 C20         1.2418    2.5849   46.9368 C.ar    1  ZINC000301324012   -0.0600
     21 Cl21        1.9205    1.9994   48.4235 Cl      1  ZINC000301324012   -0.0600
     22 C22        -1.1457    0.6546   49.6060 C.ar    1  ZINC000301324012   -0.0200
     23 C23        -1.5059    1.4207   50.6952 C.ar    1  ZINC000301324012   -0.0800
     24 C24        -4.1971    3.1377   54.6916 C.ar    1  ZINC000301324012    0.1200
     25 C25        -5.0598    2.4157   53.8892 C.ar    1  ZINC000301324012   -0.1600
     26 C26        -6.2378    1.9259   54.4328 C.ar    1  ZINC000301324012   -0.0700
     27 C27        -6.5044    2.1819   55.7689 C.ar    1  ZINC000301324012   -0.1700
     28 C28        -5.5938    2.9117   56.5096 C.ar    1  ZINC000301324012    0.1100
     29 N29        -4.4810    3.3578   55.9606 N.ar    1  ZINC000301324012   -0.4900
     30 H30        -2.1046    4.2248   56.0307 H       1  ZINC000301324012    0.0700
     31 H31        -1.6643    2.5874   55.4891 H       1  ZINC000301324012    0.0600
     32 H32        -0.8845    4.0080   54.7529 H       1  ZINC000301324012    0.0700
     33 H33        -2.0290    2.0363   53.0912 H       1  ZINC000301324012    0.4100
     34 H34        -3.7457    3.4668   49.1733 H       1  ZINC000301324012    0.1400
     35 H35        -3.0815    2.0948   47.2429 H       1  ZINC000301324012    0.1500
     36 H36         1.0095   -0.2197   46.5263 H       1  ZINC000301324012    0.4300
     37 H37        -0.6401    1.5530   44.3204 H       1  ZINC000301324012    0.1700
     38 H38        -0.2565    3.8866   43.6381 H       1  ZINC000301324012    0.1400
     39 H39         1.0853    5.3821   45.0582 H       1  ZINC000301324012    0.1400
     40 H40         2.0469    4.5511   47.1659 H       1  ZINC000301324012    0.1400
     41 H41        -0.4178   -0.1352   49.7197 H       1  ZINC000301324012    0.1500
     42 H42        -1.0634    1.2292   51.6617 H       1  ZINC000301324012    0.1500
     43 H43        -4.8200    2.2356   52.8517 H       1  ZINC000301324012    0.1400
     44 H44        -6.9311    1.3587   53.8295 H       1  ZINC000301324012    0.1400
     45 H45        -7.4124    1.8160   56.2252 H       1  ZINC000301324012    0.1400
     46 H46        -5.7943    3.1158   57.5510 H       1  ZINC000301324012    0.1600
@<TRIPOS>BOND
     1     1     2    1
     2     1    30    1
     3     1    31    1
     4     1    32    1
     5     2     3    1
     6     2     4    1
     7     2    24    1
     8     4     5   am
     9     4    33    1
    10     5     6    2
    11     5     7    1
    12     7    23   ar
    13     7     8   ar
    14     8     9   ar
    15     8    34    1
    16     9    10   ar
    17     9    35    1
    18    10    11    1
    19    10    22   ar
    20    11    12    2
    21    11    13    2
    22    11    14   am
    23    14    15    1
    24    14    36    1
    25    15    20   ar
    26    15    16   ar
    27    16    17   ar
    28    16    37    1
    29    17    18   ar
    30    17    38    1
    31    18    19   ar
    32    18    39    1
    33    19    20   ar
    34    19    40    1
    35    20    21    1
    36    22    23   ar
    37    22    41    1
    38    23    42    1
    39    24    29   ar
    40    24    25   ar
    41    25    26   ar
    42    25    43    1
    43    26    27   ar
    44    26    44    1
    45    27    28   ar
    46    27    45    1
    47    28    29   ar
    48    28    46    1
@<TRIPOS>SUBSTRUCTURE
     1 ZINC000301324012        1 TEMP              0 ****  ****    0 ROOT


##########                                Name:    ZINC000939075213
##########                DOCK_Rotatable_Bonds:                   7
##########                         Heavy_Atoms:                  24
##########                    Molecular_Weight:             327.426
##########                DOCK_Rotatable_Bonds:                   7
##########                       Formal_Charge:          -0.0200002
##########                     HBond_Acceptors:                   5
##########                        HBond_Donors:                   2
##########                         Heavy_Atoms:                  24
##########                          Grid_Score:          -30.304207
##########                     Grid_vdw_energy:          -29.708200
##########                      Grid_es_energy:           -0.596005
##########           Internal_energy_repulsive:            8.578348

@<TRIPOS>MOLECULE
ZINC000939075213
 49 51 1 0 0
SMALL
USER_CHARGES


@<TRIPOS>ATOM
      1 C1        -12.5942    1.6193   52.0043 C.3     1  ZINC000939075213   -0.1400
      2 C2        -11.6882    0.5324   52.5864 C.3     1  ZINC000939075213   -0.1100
      3 H3        -11.4112   -0.1934   51.8218 H       1  ZINC000939075213    0.0900
      4 C4        -12.3623   -0.1638   53.7948 C.3     1  ZINC000939075213    0.1100
      5 N5        -11.2444   -0.6902   54.5990 N.am    1  ZINC000939075213   -0.6200
      6 C6        -11.3148   -1.7253   55.4592 C.2     1  ZINC000939075213    0.5600
      7 O7        -12.3705   -2.3096   55.6240 O.2     1  ZINC000939075213   -0.5400
      8 C8        -10.1617   -2.1333   56.1712 C.2     1  ZINC000939075213   -0.2600
      9 C9        -10.1816   -3.2810   56.8934 C.2     1  ZINC000939075213    0.0400
     10 C10        -9.0274   -3.6896   57.6062 C.2     1  ZINC000939075213    0.0000
     11 C11        -7.8796   -2.9435   57.8008 C.2     1  ZINC000939075213   -0.1500
     12 C12        -7.0026   -3.7287   58.5550 C.2     1  ZINC000939075213   -0.2200
     13 C13        -7.6124   -4.9129   58.8037 C.2     1  ZINC000939075213    0.0200
     14 N14        -8.8460   -4.9000   58.2371 N.pl3   1  ZINC000939075213   -0.5000
     15 C15       -10.0399    0.1004   54.3063 C.3     1  ZINC000939075213    0.0900
     16 C16       -10.4285    1.1531   53.2463 C.3     1  ZINC000939075213    0.1400
     17 H17       -10.6709    2.1050   53.7189 H       1  ZINC000939075213    0.1100
     18 N18        -9.3535    1.3225   52.2655 N.am    1  ZINC000939075213   -0.7200
     19 C19        -8.3025    2.1172   52.5482 C.2     1  ZINC000939075213    0.5300
     20 O20        -8.2472    2.6935   53.6140 O.2     1  ZINC000939075213   -0.5300
     21 C21        -7.1958    2.2900   51.5400 C.3     1  ZINC000939075213   -0.0600
     22 C22        -7.5863    3.3378   50.4957 C.3     1  ZINC000939075213   -0.1300
     23 C23        -5.9113    2.6849   52.2307 C.2     1  ZINC000939075213   -0.1700
     24 C24        -4.8996    2.0023   51.7678 C.2     1  ZINC000939075213   -0.1400
     25 C25        -5.3407    1.0382   50.6913 C.3     1  ZINC000939075213   -0.1100
     26 C26        -6.8753    0.9409   50.8555 C.3     1  ZINC000939075213   -0.1100
     27 H27       -12.0652    2.1465   51.2102 H       1  ZINC000939075213    0.0600
     28 H28       -13.4961    1.1613   51.5981 H       1  ZINC000939075213    0.0700
     29 H29       -12.8667    2.3243   52.7896 H       1  ZINC000939075213    0.0600
     30 H30       -12.9400    0.5565   54.3740 H       1  ZINC000939075213    0.0700
     31 H31       -13.0017   -0.9785   53.4549 H       1  ZINC000939075213    0.0800
     32 H32        -9.2661   -1.5307   56.1394 H       1  ZINC000939075213    0.1300
     33 H33       -11.0773   -3.8836   56.9252 H       1  ZINC000939075213    0.1500
     34 H34        -7.6951   -1.9431   57.4381 H       1  ZINC000939075213    0.1400
     35 H35        -6.0139   -3.4420   58.8817 H       1  ZINC000939075213    0.1400
     36 H36        -7.1876   -5.7323   59.3645 H       1  ZINC000939075213    0.1600
     37 H37        -9.4899   -5.6248   58.2668 H       1  ZINC000939075213    0.4100
     38 H38        -9.6931    0.5968   55.2127 H       1  ZINC000939075213    0.0800
     39 H39        -9.2569   -0.5484   53.9138 H       1  ZINC000939075213    0.0700
     40 H40        -9.3982    0.8625   51.4127 H       1  ZINC000939075213    0.4000
     41 H41        -7.7816    4.2890   50.9909 H       1  ZINC000939075213    0.0600
     42 H42        -6.7720    3.4603   49.7817 H       1  ZINC000939075213    0.0700
     43 H43        -8.4838    3.0106   49.9707 H       1  ZINC000939075213    0.0600
     44 H44        -5.8396    3.4340   53.0054 H       1  ZINC000939075213    0.1300
     45 H45        -3.8810    2.1124   52.1092 H       1  ZINC000939075213    0.1300
     46 H46        -5.0884    1.4286   49.7052 H       1  ZINC000939075213    0.0800
     47 H47        -4.8799    0.0623   50.8434 H       1  ZINC000939075213    0.0800
     48 H48        -7.1477    0.1024   51.4965 H       1  ZINC000939075213    0.0900
     49 H49        -7.3686    0.8668   49.8864 H       1  ZINC000939075213    0.0800
@<TRIPOS>BOND
     1     1     2    1
     2     1    27    1
     3     1    28    1
     4     1    29    1
     5     2     3    1
     6     2    16    1
     7     2     4    1
     8     4     5    1
     9     4    30    1
    10     4    31    1
    11     5     6   am
    12     5    15    1
    13     6     7    2
    14     6     8    1
    15     8     9    2
    16     8    32    1
    17     9    10    1
    18     9    33    1
    19    10    14    1
    20    10    11    2
    21    11    12    1
    22    11    34    1
    23    12    13    2
    24    12    35    1
    25    13    14    1
    26    13    36    1
    27    14    37    1
    28    15    16    1
    29    15    38    1
    30    15    39    1
    31    16    17    1
    32    16    18    1
    33    18    19   am
    34    18    40    1
    35    19    20    2
    36    19    21    1
    37    21    26    1
    38    21    22    1
    39    21    23    1
    40    22    41    1
    41    22    42    1
    42    22    43    1
    43    23    24    2
    44    23    44    1
    45    24    25    1
    46    24    45    1
    47    25    26    1
    48    25    46    1
    49    25    47    1
    50    26    48    1
    51    26    49    1
@<TRIPOS>SUBSTRUCTURE
     1 ZINC000939075213        1 TEMP              0 ****  ****    0 ROOT


##########                                Name:    ZINC000821214121
##########                DOCK_Rotatable_Bonds:                  10
##########                         Heavy_Atoms:                  23
##########                    Molecular_Weight:             338.434
##########                DOCK_Rotatable_Bonds:                  10
##########                       Formal_Charge:          0.00999954
##########                     HBond_Acceptors:                   9
##########                        HBond_Donors:                   3
##########                         Heavy_Atoms:                  23
##########                          Grid_Score:          -30.299761
##########                     Grid_vdw_energy:          -28.345537
##########                      Grid_es_energy:           -1.954223
##########           Internal_energy_repulsive:            7.990522

@<TRIPOS>MOLECULE
ZINC000821214121
 45 46 1 0 0
SMALL
USER_CHARGES


@<TRIPOS>ATOM
      1 C1         -6.2377    2.2250   52.8057 C.3     1  ZINC000821214121   -0.1500
      2 C2         -6.8507    3.5449   52.3336 C.3     1  ZINC000821214121    0.0500
      3 N3         -6.6377    3.6942   50.8877 N.3     1  ZINC000821214121   -0.5200
      4 C4         -7.6566    4.5697   50.2931 C.3     1  ZINC000821214121    0.0600
      5 C5         -8.9388    3.7702   50.0532 C.3     1  ZINC000821214121   -0.1200
      6 C6         -9.9721    4.6597   49.3590 C.3     1  ZINC000821214121    0.0800
      7 O7         -9.4694    5.0692   48.0856 O.3     1  ZINC000821214121   -0.5700
      8 C8         -5.2852    4.1919   50.6034 C.3     1  ZINC000821214121    0.0400
      9 C9         -4.5736    3.2222   49.6955 C.2     1  ZINC000821214121    0.5000
     10 O10        -5.0226    2.1080   49.5269 O.2     1  ZINC000821214121   -0.4800
     11 N11        -3.4383    3.5928   49.0709 N.am    1  ZINC000821214121   -0.6300
     12 C12        -2.7811    2.6965   48.2300 C.2     1  ZINC000821214121    0.0800
     13 C13        -1.6381    2.0205   48.5378 C.2     1  ZINC000821214121   -0.1000
     14 C14        -0.9416    2.1634   49.8387 C.2     1  ZINC000821214121    0.2900
     15 N15        -0.9274    1.2793   50.8197 N.2     1  ZINC000821214121   -0.3300
     16 N16        -0.1461    1.8480   51.8390 N.pl3   1  ZINC000821214121   -0.2900
     17 N17         0.2468    3.0014   51.4182 N.2     1  ZINC000821214121    0.0200
     18 N18        -0.2066    3.2089   50.2332 N.2     1  ZINC000821214121   -0.2900
     19 C19        -1.1821    1.1824   47.5204 C.2     1  ZINC000821214121   -0.0500
     20 C20         0.0641    0.3463   47.6588 C.3     1  ZINC000821214121   -0.1000
     21 C21        -1.9275    1.1752   46.4205 C.2     1  ZINC000821214121   -0.2400
     22 C22        -1.6402    0.3535   45.1903 C.3     1  ZINC000821214121   -0.0800
     23 S23        -3.3009    2.2557   46.6089 S.3     1  ZINC000821214121    0.2600
     24 H24        -6.6419    1.4042   52.2132 H       1  ZINC000821214121    0.0700
     25 H25        -5.1553    2.2628   52.6835 H       1  ZINC000821214121    0.0500
     26 H26        -6.4795    2.0677   53.8569 H       1  ZINC000821214121    0.0600
     27 H27        -7.9200    3.5453   52.5453 H       1  ZINC000821214121    0.0900
     28 H28        -6.3762    4.3742   52.8582 H       1  ZINC000821214121    0.0400
     29 H29        -7.8656    5.3968   50.9716 H       1  ZINC000821214121    0.0400
     30 H30        -7.2900    4.9616   49.3444 H       1  ZINC000821214121    0.0800
     31 H31        -8.7178    2.9095   49.4221 H       1  ZINC000821214121    0.0800
     32 H32        -9.3374    3.4277   51.0081 H       1  ZINC000821214121    0.0700
     33 H33       -10.8983    4.1017   49.2217 H       1  ZINC000821214121    0.0400
     34 H34       -10.1655    5.5392   49.9732 H       1  ZINC000821214121    0.0500
     35 H35        -9.2394    4.3356   47.4990 H       1  ZINC000821214121    0.3800
     36 H36        -5.3509    5.1646   50.1160 H       1  ZINC000821214121    0.0700
     37 H37        -4.7305    4.2899   51.5366 H       1  ZINC000821214121    0.1200
     38 H38        -3.0785    4.4834   49.2066 H       1  ZINC000821214121    0.4200
     39 H39         0.0590    1.4480   52.6985 H       1  ZINC000821214121    0.4700
     40 H40        -0.1957   -0.6265   48.0763 H       1  ZINC000821214121    0.0700
     41 H41         0.5212    0.2107   46.6786 H       1  ZINC000821214121    0.0700
     42 H42         0.7678    0.8500   48.3213 H       1  ZINC000821214121    0.0900
     43 H43        -2.1307   -0.6159   45.2782 H       1  ZINC000821214121    0.0700
     44 H44        -2.0178    0.8733   44.3098 H       1  ZINC000821214121    0.0700
     45 H45        -0.5642    0.2088   45.0933 H       1  ZINC000821214121    0.0800
@<TRIPOS>BOND
     1     1     2    1
     2     1    24    1
     3     1    25    1
     4     1    26    1
     5     2     3    1
     6     2    27    1
     7     2    28    1
     8     3     4    1
     9     3     8    1
    10     4     5    1
    11     4    29    1
    12     4    30    1
    13     5     6    1
    14     5    31    1
    15     5    32    1
    16     6     7    1
    17     6    33    1
    18     6    34    1
    19     7    35    1
    20     8     9    1
    21     8    36    1
    22     8    37    1
    23     9    10    2
    24     9    11   am
    25    11    12    1
    26    11    38    1
    27    12    23    1
    28    12    13    2
    29    13    14    1
    30    13    19    1
    31    14    18    1
    32    14    15    2
    33    15    16    1
    34    16    17    1
    35    16    39    1
    36    17    18    2
    37    19    20    1
    38    19    21    2
    39    20    40    1
    40    20    41    1
    41    20    42    1
    42    21    22    1
    43    21    23    1
    44    22    43    1
    45    22    44    1
    46    22    45    1
@<TRIPOS>SUBSTRUCTURE
     1 ZINC000821214121        1 TEMP              0 ****  ****    0 ROOT


##########                                Name:    ZINC000451019064
##########                DOCK_Rotatable_Bonds:                   8
##########                         Heavy_Atoms:                  23
##########                    Molecular_Weight:             346.534
##########                DOCK_Rotatable_Bonds:                   8
##########                       Formal_Charge:          -0.0200008
##########                     HBond_Acceptors:                   6
##########                        HBond_Donors:                   1
##########                         Heavy_Atoms:                  23
##########                          Grid_Score:          -30.295143
##########                     Grid_vdw_energy:          -30.472597
##########                      Grid_es_energy:            0.177454
##########           Internal_energy_repulsive:            5.994227

@<TRIPOS>MOLECULE
ZINC000451019064
 57 58 1 0 0
SMALL
USER_CHARGES


@<TRIPOS>ATOM
      1 C1         -7.4763   -0.9061   58.9297 C.3     1  ZINC000451019064   -0.1500
      2 C2         -8.2475   -1.3831   57.6973 C.3     1  ZINC000451019064    0.0900
      3 H3         -7.6604   -2.1342   57.1688 H       1  ZINC000451019064    0.0700
      4 C4         -8.5126   -0.1949   56.7688 C.3     1  ZINC000451019064    0.0200
      5 N5         -9.3197   -0.6440   55.6251 N.3     1  ZINC000451019064   -0.5400
      6 C6         -9.5492    0.4557   54.6786 C.3     1  ZINC000451019064    0.0600
      7 C7         -9.3853   -0.0604   53.2476 C.3     1  ZINC000451019064   -0.1300
      8 C8         -9.1634    1.1214   52.3015 C.3     1  ZINC000451019064    0.1100
      9 N9         -7.7283    1.3930   52.1877 N.am    1  ZINC000451019064   -1.1200
     10 S10        -7.0125    1.4512   50.6955 S.o2    1  ZINC000451019064    2.6100
     11 O11        -7.1597    0.1335   50.1844 O.2     1  ZINC000451019064   -0.9600
     12 O12        -7.6292    2.5591   50.0539 O.2     1  ZINC000451019064   -0.9500
     13 C13        -5.2682    1.8075   51.0439 C.3     1  ZINC000451019064   -0.6300
     14 C14        -4.5671    2.2346   49.7528 C.3     1  ZINC000451019064   -0.1100
     15 C15        -3.1590    2.7362   50.0789 C.3     1  ZINC000451019064   -0.0800
     16 C16        -2.3513    1.6066   50.7213 C.3     1  ZINC000451019064   -0.1200
     17 C17        -0.9431    2.1082   51.0475 C.3     1  ZINC000451019064   -0.1200
     18 C18        -0.2520    2.5609   49.7598 C.3     1  ZINC000451019064   -0.1200
     19 C19        -1.0596    3.6905   49.1174 C.3     1  ZINC000451019064   -0.1200
     20 C20        -2.4678    3.1888   48.7912 C.3     1  ZINC000451019064   -0.1200
     21 C21       -10.5926   -1.2216   56.0805 C.3     1  ZINC000451019064    0.0200
     22 C22       -10.3067   -2.3993   57.0160 C.3     1  ZINC000451019064    0.0900
     23 H23        -9.7802   -3.1803   56.4674 H       1  ZINC000451019064    0.0700
     24 C24       -11.6260   -2.9550   57.5559 C.3     1  ZINC000451019064   -0.1500
     25 O25        -9.4948   -1.9517   58.1049 O.3     1  ZINC000451019064   -0.3800
     26 H26        -7.2893   -1.7521   59.5911 H       1  ZINC000451019064    0.0700
     27 H27        -6.5266   -0.4715   58.6182 H       1  ZINC000451019064    0.0700
     28 H28        -8.0638   -0.1551   59.4578 H       1  ZINC000451019064    0.0600
     29 H29        -9.0525    0.5794   57.3136 H       1  ZINC000451019064    0.0400
     30 H30        -7.5642    0.2054   56.4102 H       1  ZINC000451019064    0.0900
     31 H31       -10.5589    0.8443   54.8112 H       1  ZINC000451019064    0.0400
     32 H32        -8.8267    1.2507   54.8631 H       1  ZINC000451019064    0.0800
     33 H33        -8.5272   -0.7307   53.1992 H       1  ZINC000451019064    0.0800
     34 H34       -10.2848   -0.5996   52.9506 H       1  ZINC000451019064    0.0800
     35 H35        -9.5667    0.8801   51.3180 H       1  ZINC000451019064    0.0800
     36 H36        -9.6699    2.0024   52.6957 H       1  ZINC000451019064    0.0700
     37 H37        -7.1974    1.5388   52.9862 H       1  ZINC000451019064    0.4200
     38 H38        -5.2010    2.6115   51.7769 H       1  ZINC000451019064    0.1300
     39 H39        -4.7869    0.9135   51.4402 H       1  ZINC000451019064    0.1400
     40 H40        -4.5017    1.3826   49.0760 H       1  ZINC000451019064    0.0800
     41 H41        -5.1363    3.0334   49.2773 H       1  ZINC000451019064    0.0800
     42 H42        -3.2236    3.5757   50.7711 H       1  ZINC000451019064    0.0800
     43 H43        -2.8436    1.2841   51.6387 H       1  ZINC000451019064    0.0600
     44 H44        -2.2868    0.7670   50.0292 H       1  ZINC000451019064    0.0700
     45 H45        -1.0078    2.9478   51.7396 H       1  ZINC000451019064    0.0600
     46 H46        -0.3677    1.3035   51.5051 H       1  ZINC000451019064    0.0600
     47 H47         0.7512    2.9182   49.9921 H       1  ZINC000451019064    0.0600
     48 H48        -0.1874    1.7213   49.0676 H       1  ZINC000451019064    0.0600
     49 H49        -1.1243    4.5300   49.8094 H       1  ZINC000451019064    0.0600
     50 H50        -0.5673    4.0130   48.1999 H       1  ZINC000451019064    0.0600
     51 H51        -2.4033    2.3493   48.0991 H       1  ZINC000451019064    0.0700
     52 H52        -3.0432    3.9936   48.3335 H       1  ZINC000451019064    0.0600
     53 H53       -11.1658   -0.4637   56.6144 H       1  ZINC000451019064    0.0400
     54 H54       -11.1627   -1.5707   55.2196 H       1  ZINC000451019064    0.0900
     55 H55       -12.2449   -3.2933   56.7249 H       1  ZINC000451019064    0.0700
     56 H56       -11.4218   -3.7934   58.2218 H       1  ZINC000451019064    0.0700
     57 H57       -12.1513   -2.1740   58.1056 H       1  ZINC000451019064    0.0600
@<TRIPOS>BOND
     1     1     2    1
     2     1    26    1
     3     1    27    1
     4     1    28    1
     5     2     3    1
     6     2    25    1
     7     2     4    1
     8     4     5    1
     9     4    29    1
    10     4    30    1
    11     5     6    1
    12     5    21    1
    13     6     7    1
    14     6    31    1
    15     6    32    1
    16     7     8    1
    17     7    33    1
    18     7    34    1
    19     8     9    1
    20     8    35    1
    21     8    36    1
    22     9    10   am
    23     9    37    1
    24    10    11    2
    25    10    12    2
    26    10    13    1
    27    13    14    1
    28    13    38    1
    29    13    39    1
    30    14    15    1
    31    14    40    1
    32    14    41    1
    33    15    20    1
    34    15    16    1
    35    15    42    1
    36    16    17    1
    37    16    43    1
    38    16    44    1
    39    17    18    1
    40    17    45    1
    41    17    46    1
    42    18    19    1
    43    18    47    1
    44    18    48    1
    45    19    20    1
    46    19    49    1
    47    19    50    1
    48    20    51    1
    49    20    52    1
    50    21    22    1
    51    21    53    1
    52    21    54    1
    53    22    23    1
    54    22    24    1
    55    22    25    1
    56    24    55    1
    57    24    56    1
    58    24    57    1
@<TRIPOS>SUBSTRUCTURE
     1 ZINC000451019064        1 TEMP              0 ****  ****    0 ROOT


##########                                Name:    ZINC001070580102
##########                DOCK_Rotatable_Bonds:                   8
##########                         Heavy_Atoms:                  25
##########                    Molecular_Weight:              349.39
##########                DOCK_Rotatable_Bonds:                   8
##########                       Formal_Charge:          -0.0100003
##########                     HBond_Acceptors:                   9
##########                        HBond_Donors:                   3
##########                         Heavy_Atoms:                  25
##########                          Grid_Score:          -30.288979
##########                     Grid_vdw_energy:          -28.253502
##########                      Grid_es_energy:           -2.035476
##########           Internal_energy_repulsive:            9.687466

@<TRIPOS>MOLECULE
ZINC001070580102
 48 50 1 0 0
SMALL
USER_CHARGES


@<TRIPOS>ATOM
      1 C1         -9.8466    5.0451   48.4799 C.3     1  ZINC001070580102   -0.0800
      2 C2         -8.5949    4.7060   49.2476 C.2     1  ZINC001070580102   -0.0100
      3 C3         -8.1176    3.4685   49.4499 C.2     1  ZINC001070580102   -0.1900
      4 C4         -6.8901    3.6333   50.2423 C.2     1  ZINC001070580102   -0.2500
      5 C5         -5.9917    2.5694   50.7250 C.2     1  ZINC001070580102    0.6000
      6 O6         -6.4451    1.4836   51.0322 O.2     1  ZINC001070580102   -0.5300
      7 N7         -4.6676    2.7997   50.8256 N.am    1  ZINC001070580102   -0.7200
      8 C8         -3.7748    1.7427   51.3070 C.3     1  ZINC001070580102    0.2000
      9 C9         -2.3910    1.9625   50.7521 C.2     1  ZINC001070580102    0.2600
     10 N10        -2.0889    2.1491   49.4929 N.2     1  ZINC001070580102   -0.5100
     11 C11        -0.7726    2.3098   49.3629 C.2     1  ZINC001070580102    0.2300
     12 C12        -0.0435    2.5487   48.0660 C.3     1  ZINC001070580102    0.1400
     13 H13         1.0225    2.3726   48.2098 H       1  ZINC001070580102    0.0800
     14 C14        -0.2662    3.9940   47.6129 C.3     1  ZINC001070580102    0.0800
     15 O15         0.3650    4.1937   46.3453 O.3     1  ZINC001070580102   -0.3800
     16 C16        -0.1133    3.3190   45.3197 C.3     1  ZINC001070580102    0.0600
     17 C17         0.1110    1.8668   45.7495 C.3     1  ZINC001070580102    0.0200
     18 N18        -0.5578    1.6326   47.0376 N.3     1  ZINC001070580102   -0.5200
     19 C19        -0.4140    0.2325   47.4585 C.3     1  ZINC001070580102    0.0600
     20 C20        -1.5016   -0.6140   46.7941 C.3     1  ZINC001070580102    0.0800
     21 O21        -1.6898   -1.8184   47.5399 O.3     1  ZINC001070580102   -0.5700
     22 N22        -0.2164    2.2273   50.5430 N.2     1  ZINC001070580102   -0.2700
     23 N23        -1.2524    2.0069   51.4653 N.pl3   1  ZINC001070580102   -0.4700
     24 C24        -6.7563    4.9769   50.4367 C.2     1  ZINC001070580102    0.0900
     25 C25        -5.6436    5.6510   51.1973 C.3     1  ZINC001070580102   -0.0900
     26 O26        -7.7767    5.5941   49.8333 O.3     1  ZINC001070580102   -0.1700
     27 H27        -9.9871    6.1259   48.4729 H       1  ZINC001070580102    0.0800
     28 H28        -9.7535    4.6842   47.4555 H       1  ZINC001070580102    0.0900
     29 H29       -10.7046    4.5702   48.9558 H       1  ZINC001070580102    0.0900
     30 H30        -8.5472    2.5407   49.1019 H       1  ZINC001070580102    0.1500
     31 H31        -4.3058    3.6653   50.5794 H       1  ZINC001070580102    0.4000
     32 H32        -3.7375    1.7666   52.3962 H       1  ZINC001070580102    0.1000
     33 H33        -4.1486    0.7733   50.9775 H       1  ZINC001070580102    0.1100
     34 H34        -1.3353    4.1861   47.5214 H       1  ZINC001070580102    0.0700
     35 H35         0.1653    4.6758   48.3458 H       1  ZINC001070580102    0.1000
     36 H36        -1.1779    3.4915   45.1617 H       1  ZINC001070580102    0.0600
     37 H37         0.4288    3.5126   44.3942 H       1  ZINC001070580102    0.1000
     38 H38        -0.3036    1.1963   44.9968 H       1  ZINC001070580102    0.1200
     39 H39         1.1796    1.6797   45.8557 H       1  ZINC001070580102    0.0400
     40 H40         0.5670   -0.1375   47.1607 H       1  ZINC001070580102    0.0500
     41 H41        -0.5136    0.1668   48.5420 H       1  ZINC001070580102    0.0800
     42 H42        -2.4352   -0.0521   46.7697 H       1  ZINC001070580102    0.0500
     43 H43        -1.1991   -0.8604   45.7763 H       1  ZINC001070580102    0.0600
     44 H44        -1.9176   -1.6743   48.4687 H       1  ZINC001070580102    0.3800
     45 H45        -1.1632    1.9013   52.4254 H       1  ZINC001070580102    0.4400
     46 H46        -4.8263    5.8841   50.5149 H       1  ZINC001070580102    0.0900
     47 H47        -6.0161    6.5719   51.6460 H       1  ZINC001070580102    0.0800
     48 H48        -5.2837    4.9846   51.9812 H       1  ZINC001070580102    0.1100
@<TRIPOS>BOND
     1     1     2    1
     2     1    27    1
     3     1    28    1
     4     1    29    1
     5     2    26    1
     6     2     3    2
     7     3     4    1
     8     3    30    1
     9     4     5    1
    10     4    24    2
    11     5     6    2
    12     5     7   am
    13     7     8    1
    14     7    31    1
    15     8     9    1
    16     8    32    1
    17     8    33    1
    18     9    23    1
    19     9    10    2
    20    10    11    1
    21    11    12    1
    22    11    22    2
    23    12    13    1
    24    12    18    1
    25    12    14    1
    26    14    15    1
    27    14    34    1
    28    14    35    1
    29    15    16    1
    30    16    17    1
    31    16    36    1
    32    16    37    1
    33    17    18    1
    34    17    38    1
    35    17    39    1
    36    18    19    1
    37    19    20    1
    38    19    40    1
    39    19    41    1
    40    20    21    1
    41    20    42    1
    42    20    43    1
    43    21    44    1
    44    22    23    1
    45    23    45    1
    46    24    25    1
    47    24    26    1
    48    25    46    1
    49    25    47    1
    50    25    48    1
@<TRIPOS>SUBSTRUCTURE
     1 ZINC001070580102        1 TEMP              0 ****  ****    0 ROOT


##########                                Name:    ZINC000182044395
##########                DOCK_Rotatable_Bonds:                   8
##########                         Heavy_Atoms:                  28
##########                    Molecular_Weight:             398.889
##########                DOCK_Rotatable_Bonds:                   8
##########                       Formal_Charge:          -0.0399999
##########                     HBond_Acceptors:                   6
##########                        HBond_Donors:                   2
##########                         Heavy_Atoms:                  28
##########                          Grid_Score:          -30.272947
##########                     Grid_vdw_energy:          -31.225756
##########                      Grid_es_energy:            0.952809
##########           Internal_energy_repulsive:           23.241718

@<TRIPOS>MOLECULE
ZINC000182044395
 51 53 1 0 0
SMALL
USER_CHARGES


@<TRIPOS>ATOM
      1 C1         -6.7970   -3.3359   58.7438 C.3     1  ZINC000182044395   -0.1800
      2 C2         -7.2784   -1.9625   58.2714 C.3     1  ZINC000182044395    0.0800
      3 N3         -8.4074   -1.5296   59.0986 N.pl3   1  ZINC000182044395   -0.4800
      4 C4         -8.1826   -0.6424   60.0765 C.2     1  ZINC000182044395    0.2500
      5 C5         -9.1906   -0.1840   60.8993 C.2     1  ZINC000182044395   -0.3500
      6 C6         -8.9026    0.7916   61.9623 C.2     1  ZINC000182044395    0.5900
      7 O7         -8.4351    1.8786   61.6799 O.2     1  ZINC000182044395   -0.5600
      8 N8         -9.1567    0.4810   63.2489 N.am    1  ZINC000182044395   -0.7200
      9 C9         -8.8699    1.4524   64.3074 C.3     1  ZINC000182044395    0.1100
     10 H10        -7.9720    2.0146   64.0510 H       1  ZINC000182044395    0.0900
     11 C11       -10.0508    2.4147   64.4501 C.3     1  ZINC000182044395   -0.1600
     12 C12        -8.6498    0.7153   65.6300 C.3     1  ZINC000182044395    0.1100
     13 H13        -8.9156    1.3705   66.4596 H       1  ZINC000182044395    0.1100
     14 O14        -9.4695   -0.4545   65.6654 O.3     1  ZINC000182044395   -0.5500
     15 C15        -7.1790    0.3114   65.7502 C.3     1  ZINC000182044395   -0.1100
     16 C16        -6.3188    1.5485   65.7756 C.ar    1  ZINC000182044395   -0.0800
     17 C17        -5.0324    1.5064   65.2712 C.ar    1  ZINC000182044395   -0.1000
     18 C18        -4.2433    2.6410   65.2949 C.ar    1  ZINC000182044395   -0.1200
     19 C19        -4.7407    3.8180   65.8222 C.ar    1  ZINC000182044395   -0.1200
     20 C20        -6.0253    3.8590   66.3310 C.ar    1  ZINC000182044395   -0.1200
     21 C21        -6.8160    2.7253   66.3038 C.ar    1  ZINC000182044395   -0.1200
     22 C22       -10.5572   -0.6915   60.7002 C.2     1  ZINC000182044395    0.4400
     23 O23       -11.4808   -0.3217   61.4039 O.2     1  ZINC000182044395   -0.4900
     24 C24       -10.7630   -1.6627   59.6094 C.ar    1  ZINC000182044395   -0.1800
     25 C25       -12.0253   -2.1929   59.3443 C.ar    1  ZINC000182044395   -0.0200
     26 C26       -12.1800   -3.1034   58.3208 C.ar    1  ZINC000182044395   -0.0700
     27 Cl27      -13.7481   -3.7684   57.9849 Cl      1  ZINC000182044395   -0.0500
     28 C28       -11.0868   -3.4904   57.5571 C.ar    1  ZINC000182044395   -0.0500
     29 C29        -9.8347   -2.9737   57.8084 C.ar    1  ZINC000182044395   -0.1600
     30 C30        -9.6554   -2.0531   58.8375 C.ar    1  ZINC000182044395    0.1900
     31 H31        -7.6101   -4.0563   58.6546 H       1  ZINC000182044395    0.0700
     32 H32        -5.9570   -3.6580   58.1284 H       1  ZINC000182044395    0.0800
     33 H33        -6.4811   -3.2717   59.7850 H       1  ZINC000182044395    0.0700
     34 H34        -7.5943   -2.0267   57.2302 H       1  ZINC000182044395    0.1000
     35 H35        -6.4653   -1.2421   58.3607 H       1  ZINC000182044395    0.1100
     36 H36        -7.1787   -0.2732   60.2257 H       1  ZINC000182044395    0.1800
     37 H37        -9.5295   -0.3857   63.4741 H       1  ZINC000182044395    0.4100
     38 H38       -10.2075    2.9397   63.5079 H       1  ZINC000182044395    0.0600
     39 H39       -10.9487    1.8524   64.7066 H       1  ZINC000182044395    0.0600
     40 H40        -9.8374    3.1374   65.2377 H       1  ZINC000182044395    0.0600
     41 H41        -9.3193   -1.0626   64.9287 H       1  ZINC000182044395    0.3700
     42 H42        -6.9011   -0.3069   64.8967 H       1  ZINC000182044395    0.0800
     43 H43        -7.0313   -0.2528   66.6711 H       1  ZINC000182044395    0.0800
     44 H44        -4.6440    0.5870   64.8589 H       1  ZINC000182044395    0.1200
     45 H45        -3.2381    2.6080   64.9012 H       1  ZINC000182044395    0.1200
     46 H46        -4.1241    4.7046   65.8407 H       1  ZINC000182044395    0.1200
     47 H47        -6.4124    4.7774   66.7471 H       1  ZINC000182044395    0.1200
     48 H48        -7.8208    2.7582   66.6981 H       1  ZINC000182044395    0.1200
     49 H49       -12.8764   -1.8921   59.9372 H       1  ZINC000182044395    0.1500
     50 H50       -11.2196   -4.2038   56.7573 H       1  ZINC000182044395    0.1500
     51 H51        -8.9924   -3.2824   57.2071 H       1  ZINC000182044395    0.1500
@<TRIPOS>BOND
     1     1     2    1
     2     1    31    1
     3     1    32    1
     4     1    33    1
     5     2     3    1
     6     2    34    1
     7     2    35    1
     8     3    30    1
     9     3     4    1
    10     4     5    2
    11     4    36    1
    12     5     6    1
    13     5    22    1
    14     6     7    2
    15     6     8   am
    16     8     9    1
    17     8    37    1
    18     9    10    1
    19     9    11    1
    20     9    12    1
    21    11    38    1
    22    11    39    1
    23    11    40    1
    24    12    13    1
    25    12    14    1
    26    12    15    1
    27    14    41    1
    28    15    16    1
    29    15    42    1
    30    15    43    1
    31    16    21   ar
    32    16    17   ar
    33    17    18   ar
    34    17    44    1
    35    18    19   ar
    36    18    45    1
    37    19    20   ar
    38    19    46    1
    39    20    21   ar
    40    20    47    1
    41    21    48    1
    42    22    23    2
    43    22    24    1
    44    24    30   ar
    45    24    25   ar
    46    25    26   ar
    47    25    49    1
    48    26    27    1
    49    26    28   ar
    50    28    29   ar
    51    28    50    1
    52    29    30   ar
    53    29    51    1
@<TRIPOS>SUBSTRUCTURE
     1 ZINC000182044395        1 TEMP              0 ****  ****    0 ROOT


##########                                Name:    ZINC000851838607
##########                DOCK_Rotatable_Bonds:                  12
##########                         Heavy_Atoms:                  23
##########                    Molecular_Weight:             352.495
##########                DOCK_Rotatable_Bonds:                  12
##########                       Formal_Charge:          0.00999896
##########                     HBond_Acceptors:                   8
##########                        HBond_Donors:                   2
##########                         Heavy_Atoms:                  23
##########                          Grid_Score:          -30.258593
##########                     Grid_vdw_energy:          -28.123356
##########                      Grid_es_energy:           -2.135237
##########           Internal_energy_repulsive:           18.704304

@<TRIPOS>MOLECULE
ZINC000851838607
 55 54 1 0 0
SMALL
USER_CHARGES


@<TRIPOS>ATOM
      1 C1          1.9496    2.1729   53.0671 C.3     1  ZINC000851838607    0.0300
      2 O2          0.7389    2.2637   53.8206 O.3     1  ZINC000851838607   -0.3800
      3 C3          0.8579    3.0282   55.0221 C.3     1  ZINC000851838607    0.0800
      4 C4         -0.4913    3.0588   55.7429 C.3     1  ZINC000851838607   -0.6000
      5 H5         -0.8439    2.0390   55.8974 H       1  ZINC000851838607    0.1400
      6 C6         -0.3307    3.7534   57.0967 C.3     1  ZINC000851838607   -0.1400
      7 S7         -1.6946    3.9686   54.7354 S.o2    1  ZINC000851838607    2.6200
      8 O8         -2.8878    4.1999   55.4716 O.2     1  ZINC000851838607   -0.9400
      9 O9         -1.0561    5.0210   54.0256 O.2     1  ZINC000851838607   -0.9500
     10 N10        -2.1431    2.8946   53.5574 N.am    1  ZINC000851838607   -1.1200
     11 C11        -3.1220    3.2885   52.5412 C.3     1  ZINC000851838607    0.1100
     12 C12        -3.8984    2.0551   52.0755 C.3     1  ZINC000851838607   -0.1400
     13 C13        -4.8907    2.4593   50.9834 C.3     1  ZINC000851838607    0.1700
     14 H14        -4.9028    3.5449   50.8872 H       1  ZINC000851838607    0.1000
     15 N15        -4.4851    1.8606   49.7093 N.am    1  ZINC000851838607   -0.7100
     16 C16        -3.7362    2.5681   48.8404 C.2     1  ZINC000851838607    0.6500
     17 O17        -3.3963    3.7022   49.1143 O.2     1  ZINC000851838607   -0.5600
     18 O18        -3.3649    2.0185   47.6688 O.3     1  ZINC000851838607   -0.3700
     19 C19        -1.9559    1.7092   47.5030 C.3     1  ZINC000851838607    0.1400
     20 C20        -1.3825    1.2144   48.8324 C.3     1  ZINC000851838607   -0.1800
     21 C21        -1.7945    0.6198   46.4409 C.3     1  ZINC000851838607   -0.1400
     22 C22        -1.2060    2.9674   47.0609 C.3     1  ZINC000851838607   -0.1800
     23 C23        -6.2895    1.9647   51.3569 C.3     1  ZINC000851838607   -0.1100
     24 C24        -6.9508    2.9707   52.3012 C.3     1  ZINC000851838607   -0.1500
     25 C25        -7.1353    1.8224   50.0898 C.3     1  ZINC000851838607   -0.1400
     26 H26         2.2754    3.1731   52.7810 H       1  ZINC000851838607    0.0400
     27 H27         2.7211    1.6995   53.6745 H       1  ZINC000851838607    0.0500
     28 H28         1.7761    1.5772   52.1709 H       1  ZINC000851838607    0.0900
     29 H29         1.6059    2.5718   55.6704 H       1  ZINC000851838607    0.0700
     30 H30         1.1619    4.0457   54.7767 H       1  ZINC000851838607    0.0600
     31 H31        -1.3070    3.8564   57.5703 H       1  ZINC000851838607    0.0700
     32 H32         0.3219    3.1581   57.7353 H       1  ZINC000851838607    0.0900
     33 H33         0.1074    4.7404   56.9488 H       1  ZINC000851838607    0.0700
     34 H34        -1.7576    2.0046   53.5401 H       1  ZINC000851838607    0.4200
     35 H35        -3.8148    4.0148   52.9663 H       1  ZINC000851838607    0.0700
     36 H36        -2.6046    3.7342   51.6917 H       1  ZINC000851838607    0.0800
     37 H37        -3.2023    1.3162   51.6787 H       1  ZINC000851838607    0.0800
     38 H38        -4.4405    1.6273   52.9189 H       1  ZINC000851838607    0.1000
     39 H39        -4.7554    0.9550   49.4911 H       1  ZINC000851838607    0.4100
     40 H40        -1.9167    0.3180   49.1473 H       1  ZINC000851838607    0.0600
     41 H41        -0.3248    0.9822   48.7078 H       1  ZINC000851838607    0.0700
     42 H42        -1.4975    1.9905   49.5890 H       1  ZINC000851838607    0.0900
     43 H43        -2.2030    0.9722   45.4938 H       1  ZINC000851838607    0.0700
     44 H44        -0.7368    0.3875   46.3164 H       1  ZINC000851838607    0.0800
     45 H45        -2.3286   -0.2767   46.7559 H       1  ZINC000851838607    0.0700
     46 H46        -1.3210    3.7436   47.8175 H       1  ZINC000851838607    0.0900
     47 H47        -0.1484    2.7352   46.9364 H       1  ZINC000851838607    0.0700
     48 H48        -1.6146    3.3200   46.1138 H       1  ZINC000851838607    0.0600
     49 H49        -6.2124    0.9972   51.8529 H       1  ZINC000851838607    0.0700
     50 H50        -7.0279    3.9382   51.8053 H       1  ZINC000851838607    0.0600
     51 H51        -7.9474    2.6183   52.5672 H       1  ZINC000851838607    0.0600
     52 H52        -6.3483    3.0720   53.2039 H       1  ZINC000851838607    0.0600
     53 H53        -6.6642    1.1059   49.4171 H       1  ZINC000851838607    0.0500
     54 H54        -8.1319    1.4702   50.3559 H       1  ZINC000851838607    0.0500
     55 H55        -7.2124    2.7901   49.5939 H       1  ZINC000851838607    0.0700
@<TRIPOS>BOND
     1     1     2    1
     2     1    26    1
     3     1    27    1
     4     1    28    1
     5     2     3    1
     6     3     4    1
     7     3    29    1
     8     3    30    1
     9     4     5    1
    10     4     6    1
    11     4     7    1
    12     6    31    1
    13     6    32    1
    14     6    33    1
    15     7     8    2
    16     7     9    2
    17     7    10   am
    18    10    11    1
    19    10    34    1
    20    11    12    1
    21    11    35    1
    22    11    36    1
    23    12    13    1
    24    12    37    1
    25    12    38    1
    26    13    14    1
    27    13    15    1
    28    13    23    1
    29    15    16   am
    30    15    39    1
    31    16    17    2
    32    16    18    1
    33    18    19    1
    34    19    20    1
    35    19    21    1
    36    19    22    1
    37    20    40    1
    38    20    41    1
    39    20    42    1
    40    21    43    1
    41    21    44    1
    42    21    45    1
    43    22    46    1
    44    22    47    1
    45    22    48    1
    46    23    24    1
    47    23    25    1
    48    23    49    1
    49    24    50    1
    50    24    51    1
    51    24    52    1
    52    25    53    1
    53    25    54    1
    54    25    55    1
@<TRIPOS>SUBSTRUCTURE
     1 ZINC000851838607        1 TEMP              0 ****  ****    0 ROOT


##########                                Name:    ZINC000945148121
##########                DOCK_Rotatable_Bonds:                   6
##########                         Heavy_Atoms:                  24
##########                    Molecular_Weight:             332.446
##########                DOCK_Rotatable_Bonds:                   6
##########                       Formal_Charge:           0.0100009
##########                     HBond_Acceptors:                   6
##########                        HBond_Donors:                   2
##########                         Heavy_Atoms:                  24
##########                          Grid_Score:          -30.251896
##########                     Grid_vdw_energy:          -26.762121
##########                      Grid_es_energy:           -3.489774
##########           Internal_energy_repulsive:           20.548164

@<TRIPOS>MOLECULE
ZINC000945148121
 52 54 1 0 0
SMALL
USER_CHARGES


@<TRIPOS>ATOM
      1 O1         -7.7990    3.5361   53.2549 O.2     1  ZINC000945148121   -0.5100
      2 C2         -7.1067    2.6881   53.7770 C.2     1  ZINC000945148121    0.5200
      3 C3         -7.4949    2.1188   55.1173 C.3     1  ZINC000945148121   -0.0500
      4 C4         -6.4460    2.4773   56.1382 C.2     1  ZINC000945148121    0.0100
      5 C5         -6.6468    2.6219   57.4620 C.2     1  ZINC000945148121   -0.0500
      6 N6         -5.4367    2.9466   58.0130 N.pl3   1  ZINC000945148121   -0.5700
      7 C7         -4.5377    2.9890   57.0061 C.2     1  ZINC000945148121    0.1800
      8 N8         -5.1475    2.7024   55.8885 N.2     1  ZINC000945148121   -0.4700
      9 N9         -5.9932    2.2509   53.1562 N.am    1  ZINC000945148121   -0.7300
     10 C10        -5.6158    2.8044   51.8533 C.3     1  ZINC000945148121    0.1500
     11 C11        -4.6667    3.9875   52.0576 C.3     1  ZINC000945148121   -0.1400
     12 C12        -4.3016    4.5852   50.6951 C.3     1  ZINC000945148121    0.1100
     13 N13        -3.7618    3.5191   49.8402 N.am    1  ZINC000945148121   -0.6100
     14 C14        -2.5619    3.6594   49.2427 C.2     1  ZINC000945148121    0.5200
     15 O15        -1.9163    4.6724   49.4094 O.2     1  ZINC000945148121   -0.5400
     16 C16        -2.0227    2.5575   48.3673 C.3     1  ZINC000945148121   -0.1000
     17 C17        -0.9411    3.1040   47.4754 C.3     1  ZINC000945148121   -0.1200
     18 C18        -0.9139    2.4204   46.0950 C.3     1  ZINC000945148121   -0.1200
     19 C19        -1.1184    0.8957   46.1792 C.3     1  ZINC000945148121   -0.1200
     20 C20        -0.3583    0.2750   47.3200 C.3     1  ZINC000945148121   -0.1200
     21 C21        -1.2972    0.1800   48.5400 C.3     1  ZINC000945148121   -0.1200
     22 C22        -1.4163    1.4460   49.2482 C.3     1  ZINC000945148121   -0.1000
     23 C23        -4.5547    2.2968   49.6497 C.3     1  ZINC000945148121    0.1100
     24 C24        -4.9168    1.7248   51.0239 C.3     1  ZINC000945148121   -0.1400
     25 H25        -8.4560    2.5324   55.4232 H       1  ZINC000945148121    0.1000
     26 H26        -7.5734    1.0342   55.0424 H       1  ZINC000945148121    0.1000
     27 H27        -7.5829    2.5047   57.9876 H       1  ZINC000945148121    0.1800
     28 H28        -5.2581    3.1148   58.9515 H       1  ZINC000945148121    0.4200
     29 H29        -3.4873    3.2181   57.1093 H       1  ZINC000945148121    0.2100
     30 H30        -5.4417    1.5699   53.5720 H       1  ZINC000945148121    0.4000
     31 H31        -6.5099    3.1427   51.3297 H       1  ZINC000945148121    0.0900
     32 H32        -5.1568    4.7459   52.6680 H       1  ZINC000945148121    0.0800
     33 H33        -3.7614    3.6453   52.5589 H       1  ZINC000945148121    0.0700
     34 H34        -5.1924    5.0093   50.2316 H       1  ZINC000945148121    0.0700
     35 H35        -3.5501    5.3635   50.8270 H       1  ZINC000945148121    0.1000
     36 H36        -2.8284    2.1449   47.7601 H       1  ZINC000945148121    0.1000
     37 H37        -1.1050    4.1727   47.3365 H       1  ZINC000945148121    0.0700
     38 H38         0.0238    2.9573   47.9606 H       1  ZINC000945148121    0.0700
     39 H39        -1.7029    2.8472   45.4757 H       1  ZINC000945148121    0.0600
     40 H40         0.0477    2.6205   45.6225 H       1  ZINC000945148121    0.0700
     41 H41        -2.1806    0.6890   46.3094 H       1  ZINC000945148121    0.0600
     42 H42        -0.7848    0.4430   45.2455 H       1  ZINC000945148121    0.0600
     43 H43        -0.0236   -0.7230   47.0369 H       1  ZINC000945148121    0.0600
     44 H44         0.5023    0.8964   47.5676 H       1  ZINC000945148121    0.0700
     45 H45        -2.2859   -0.1294   48.2013 H       1  ZINC000945148121    0.0600
     46 H46        -0.9094   -0.5730   49.2260 H       1  ZINC000945148121    0.0600
     47 H47        -0.4266    1.7592   49.5802 H       1  ZINC000945148121    0.0700
     48 H48        -2.0512    1.3028   50.1227 H       1  ZINC000945148121    0.0700
     49 H49        -5.4660    2.5343   49.1009 H       1  ZINC000945148121    0.0700
     50 H50        -3.9700    1.5653   49.0919 H       1  ZINC000945148121    0.1000
     51 H51        -4.0092    1.4039   51.5350 H       1  ZINC000945148121    0.0700
     52 H52        -5.5850    0.8727   50.8986 H       1  ZINC000945148121    0.0800
@<TRIPOS>BOND
     1     1     2    2
     2     2     3    1
     3     2     9   am
     4     3     4    1
     5     3    25    1
     6     3    26    1
     7     4     8    1
     8     4     5    2
     9     5     6    1
    10     5    27    1
    11     6     7    1
    12     6    28    1
    13     7     8    2
    14     7    29    1
    15     9    10    1
    16     9    30    1
    17    10    24    1
    18    10    11    1
    19    10    31    1
    20    11    12    1
    21    11    32    1
    22    11    33    1
    23    12    13    1
    24    12    34    1
    25    12    35    1
    26    13    14   am
    27    13    23    1
    28    14    15    2
    29    14    16    1
    30    16    22    1
    31    16    17    1
    32    16    36    1
    33    17    18    1
    34    17    37    1
    35    17    38    1
    36    18    19    1
    37    18    39    1
    38    18    40    1
    39    19    20    1
    40    19    41    1
    41    19    42    1
    42    20    21    1
    43    20    43    1
    44    20    44    1
    45    21    22    1
    46    21    45    1
    47    21    46    1
    48    22    47    1
    49    22    48    1
    50    23    24    1
    51    23    49    1
    52    23    50    1
    53    24    51    1
    54    24    52    1
@<TRIPOS>SUBSTRUCTURE
     1 ZINC000945148121        1 TEMP              0 ****  ****    0 ROOT


##########                                Name:    ZINC000459459628
##########                DOCK_Rotatable_Bonds:                   8
##########                         Heavy_Atoms:                  27
##########                    Molecular_Weight:             377.366
##########                DOCK_Rotatable_Bonds:                   8
##########                       Formal_Charge:         -0.00999984
##########                     HBond_Acceptors:                   8
##########                        HBond_Donors:                   1
##########                         Heavy_Atoms:                  27
##########                          Grid_Score:          -30.246647
##########                     Grid_vdw_energy:          -25.687687
##########                      Grid_es_energy:           -4.558961
##########           Internal_energy_repulsive:           19.229973

@<TRIPOS>MOLECULE
ZINC000459459628
 45 46 1 0 0
SMALL
USER_CHARGES


@<TRIPOS>ATOM
      1 C1         -7.1892   -1.9700   58.7124 C.3     1  ZINC000459459628   -0.1600
      2 C2         -8.3974   -1.0326   58.7618 C.3     1  ZINC000459459628    0.1600
      3 H3         -9.2535   -1.5648   59.1765 H       1  ZINC000459459628    0.1100
      4 C4         -8.7305   -0.5548   57.3469 C.3     1  ZINC000459459628   -0.0900
      5 C5         -9.9386   -1.2978   56.8373 C.ar    1  ZINC000459459628   -0.0500
      6 C6        -10.1859   -2.5893   57.2633 C.ar    1  ZINC000459459628   -0.1200
      7 C7        -11.2938   -3.2721   56.7965 C.ar    1  ZINC000459459628   -0.0900
      8 C8        -12.1553   -2.6640   55.9036 C.ar    1  ZINC000459459628   -0.1600
      9 C9        -11.9089   -1.3699   55.4765 C.ar    1  ZINC000459459628    0.1000
     10 F10       -12.7504   -0.7744   54.6034 F       1  ZINC000459459628   -0.1400
     11 C11       -10.8020   -0.6853   55.9486 C.ar    1  ZINC000459459628   -0.1500
     12 N12        -8.0848    0.1229   59.6064 N.am    1  ZINC000459459628   -0.6200
     13 C13        -7.3222    1.2468   59.0572 C.3     1  ZINC000459459628    0.0700
     14 C14        -8.4987    0.1519   60.8887 C.2     1  ZINC000459459628    0.7100
     15 O15        -9.1329   -0.7802   61.3442 O.2     1  ZINC000459459628   -0.5700
     16 N16        -8.2097    1.2142   61.6662 N.am    1  ZINC000459459628   -0.6800
     17 C17        -8.6402    1.2444   63.0000 C.ar    1  ZINC000459459628    0.1500
     18 C18        -7.8875    0.6302   63.9839 C.ar    1  ZINC000459459628   -0.0400
     19 C19        -8.3201    0.6630   65.3124 C.ar    1  ZINC000459459628   -0.0300
     20 C20        -7.5443    0.0289   66.3354 C.1     1  ZINC000459459628    0.2600
     21 N21        -6.9289   -0.4741   67.1471 N.1     1  ZINC000459459628   -0.4100
     22 C22        -9.5108    1.3161   65.6403 C.ar    1  ZINC000459459628   -0.0500
     23 C23       -10.2570    1.9263   64.6545 C.ar    1  ZINC000459459628   -0.1700
     24 C24        -9.8257    1.8994   63.3361 C.ar    1  ZINC000459459628    0.1100
     25 O25       -10.5647    2.5021   62.3688 O.3     1  ZINC000459459628   -0.3200
     26 C26       -11.8078    1.8873   62.0243 C.3     1  ZINC000459459628    0.4100
     27 F27       -11.9834    0.7296   62.7897 F       1  ZINC000459459628   -0.1900
     28 F28       -12.8554    2.7787   62.2798 F       1  ZINC000459459628   -0.1900
     29 H29        -6.3331   -1.4378   58.2976 H       1  ZINC000459459628    0.0600
     30 H30        -6.9519   -2.3102   59.7203 H       1  ZINC000459459628    0.0600
     31 H31        -7.4218   -2.8296   58.0840 H       1  ZINC000459459628    0.0700
     32 H32        -8.9422    0.5143   57.3649 H       1  ZINC000459459628    0.0800
     33 H33        -7.8823   -0.7463   56.6898 H       1  ZINC000459459628    0.0900
     34 H34        -9.5128   -3.0654   57.9609 H       1  ZINC000459459628    0.1300
     35 H35       -11.4858   -4.2813   57.1297 H       1  ZINC000459459628    0.1300
     36 H36       -13.0203   -3.1978   55.5386 H       1  ZINC000459459628    0.1300
     37 H37       -10.6091    0.3240   55.6165 H       1  ZINC000459459628    0.1300
     38 H38        -8.0088    1.9765   58.6281 H       1  ZINC000459459628    0.0600
     39 H39        -6.7434    1.7163   59.8526 H       1  ZINC000459459628    0.0700
     40 H40        -6.6471    0.8836   58.2823 H       1  ZINC000459459628    0.0800
     41 H41        -7.7038    1.9578   61.3029 H       1  ZINC000459459628    0.4100
     42 H42        -6.9678    0.1259   63.7263 H       1  ZINC000459459628    0.1600
     43 H43        -9.8470    1.3428   66.6662 H       1  ZINC000459459628    0.1400
     44 H44       -11.1775    2.4301   64.9098 H       1  ZINC000459459628    0.1500
     45 H45       -11.8030    1.6261   60.9661 H       1  ZINC000459459628    0.1900
@<TRIPOS>BOND
     1     1     2    1
     2     1    29    1
     3     1    30    1
     4     1    31    1
     5     2     3    1
     6     2     4    1
     7     2    12    1
     8     4     5    1
     9     4    32    1
    10     4    33    1
    11     5    11   ar
    12     5     6   ar
    13     6     7   ar
    14     6    34    1
    15     7     8   ar
    16     7    35    1
    17     8     9   ar
    18     8    36    1
    19     9    10    1
    20     9    11   ar
    21    11    37    1
    22    12    13    1
    23    12    14   am
    24    13    38    1
    25    13    39    1
    26    13    40    1
    27    14    15    2
    28    14    16   am
    29    16    17    1
    30    16    41    1
    31    17    24   ar
    32    17    18   ar
    33    18    19   ar
    34    18    42    1
    35    19    20    1
    36    19    22   ar
    37    20    21    3
    38    22    23   ar
    39    22    43    1
    40    23    24   ar
    41    23    44    1
    42    24    25    1
    43    25    26    1
    44    26    27    1
    45    26    28    1
    46    26    45    1
@<TRIPOS>SUBSTRUCTURE
     1 ZINC000459459628        1 TEMP              0 ****  ****    0 ROOT


##########                                Name:    ZINC000074782190
##########                DOCK_Rotatable_Bonds:                   9
##########                         Heavy_Atoms:                  25
##########                    Molecular_Weight:             341.453
##########                DOCK_Rotatable_Bonds:                   9
##########                       Formal_Charge:          -0.0200006
##########                     HBond_Acceptors:                   5
##########                        HBond_Donors:                   1
##########                         Heavy_Atoms:                  25
##########                          Grid_Score:          -30.233625
##########                     Grid_vdw_energy:          -29.398361
##########                      Grid_es_energy:           -0.835265
##########           Internal_energy_repulsive:           24.292713

@<TRIPOS>MOLECULE
ZINC000074782190
 52 53 1 0 0
SMALL
USER_CHARGES


@<TRIPOS>ATOM
      1 C1         -0.4448    0.6496   49.2538 C.3     1  ZINC000074782190   -0.1100
      2 C2         -1.2511    1.0777   48.0548 C.ar    1  ZINC000074782190   -0.1200
      3 C3         -0.8391    0.7273   46.7838 C.ar    1  ZINC000074782190   -0.0800
      4 C4         -1.5783    1.1202   45.6831 C.ar    1  ZINC000074782190   -0.1500
      5 C5         -2.7314    1.8639   45.8518 C.ar    1  ZINC000074782190   -0.0900
      6 C6         -3.1481    2.2165   47.1210 C.ar    1  ZINC000074782190   -0.2100
      7 C7         -2.4112    1.8192   48.2270 C.ar    1  ZINC000074782190    0.1300
      8 O8         -2.8189    2.1648   49.4765 O.3     1  ZINC000074782190   -0.3000
      9 C9         -3.0534    3.5529   49.7216 C.3     1  ZINC000074782190    0.0700
     10 H10        -3.7765    3.9323   48.9996 H       1  ZINC000074782190    0.0800
     11 C11        -1.7398    4.3246   49.5814 C.3     1  ZINC000074782190   -0.1800
     12 C12        -3.6032    3.7350   51.1377 C.3     1  ZINC000074782190    0.1400
     13 N13        -4.8435    2.9689   51.2823 N.am    1  ZINC000074782190   -0.7500
     14 C14        -5.9946    3.6009   51.5858 C.2     1  ZINC000074782190    0.7100
     15 O15        -6.0036    4.8069   51.7396 O.2     1  ZINC000074782190   -0.5900
     16 N16        -7.1356    2.8961   51.7188 N.am    1  ZINC000074782190   -0.6200
     17 C17        -8.3867    3.5831   52.0487 C.3     1  ZINC000074782190    0.1800
     18 C18        -9.1720    3.8304   50.7865 C.ar    1  ZINC000074782190   -0.1600
     19 C19       -10.5368    3.5903   50.7506 C.ar    1  ZINC000074782190   -0.0500
     20 C20       -11.2187    3.8326   49.5676 C.ar    1  ZINC000074782190   -0.1800
     21 C21       -10.5200    4.3021   48.4717 C.ar    1  ZINC000074782190    0.1000
     22 N22        -9.2211    4.5194   48.5423 N.ar    1  ZINC000074782190   -0.4900
     23 C23        -8.5416    4.3051   49.6517 C.ar    1  ZINC000074782190    0.1100
     24 C24        -7.1247    1.4428   51.5335 C.3     1  ZINC000074782190    0.1300
     25 C25        -8.3305    0.8287   52.2475 C.3     1  ZINC000074782190   -0.1800
     26 C26        -7.1968    1.1186   50.0400 C.3     1  ZINC000074782190   -0.1800
     27 H27        -0.7969   -0.3219   49.6005 H       1  ZINC000074782190    0.0700
     28 H28         0.6072    0.5774   48.9772 H       1  ZINC000074782190    0.0600
     29 H29        -0.5612    1.3838   50.0509 H       1  ZINC000074782190    0.0700
     30 H30         0.0614    0.1463   46.6496 H       1  ZINC000074782190    0.1300
     31 H31        -1.2540    0.8458   44.6902 H       1  ZINC000074782190    0.1200
     32 H32        -3.3068    2.1698   44.9905 H       1  ZINC000074782190    0.1200
     33 H33        -4.0487    2.7978   47.2521 H       1  ZINC000074782190    0.1300
     34 H34        -1.0167    3.9452   50.3034 H       1  ZINC000074782190    0.0700
     35 H35        -1.3481    4.1950   48.5725 H       1  ZINC000074782190    0.0700
     36 H36        -1.9186    5.3835   49.7683 H       1  ZINC000074782190    0.0800
     37 H37        -2.8697    3.3786   51.8609 H       1  ZINC000074782190    0.0800
     38 H38        -3.8057    4.7912   51.3159 H       1  ZINC000074782190    0.0900
     39 H39        -4.8363    2.0067   51.1595 H       1  ZINC000074782190    0.4100
     40 H40        -8.9738    2.9633   52.7264 H       1  ZINC000074782190    0.0900
     41 H41        -8.1626    4.5353   52.5296 H       1  ZINC000074782190    0.1000
     42 H42       -11.0567    3.2228   51.6230 H       1  ZINC000074782190    0.1400
     43 H43       -12.2822    3.6562   49.5036 H       1  ZINC000074782190    0.1300
     44 H44       -11.0437    4.4929   47.5467 H       1  ZINC000074782190    0.1600
     45 H45        -7.4784    4.4946   49.6715 H       1  ZINC000074782190    0.1500
     46 H46        -6.2063    1.0302   51.9510 H       1  ZINC000074782190    0.1000
     47 H47        -9.2486    1.1719   51.7707 H       1  ZINC000074782190    0.0600
     48 H48        -8.2740   -0.2582   52.1868 H       1  ZINC000074782190    0.0700
     49 H49        -8.3279    1.1348   53.2937 H       1  ZINC000074782190    0.0600
     50 H50        -6.2828    1.4553   49.5506 H       1  ZINC000074782190    0.0700
     51 H51        -7.3049    0.0422   49.9067 H       1  ZINC000074782190    0.0700
     52 H52        -8.0539    1.6273   49.5987 H       1  ZINC000074782190    0.0700
@<TRIPOS>BOND
     1     1     2    1
     2     1    27    1
     3     1    28    1
     4     1    29    1
     5     2     7   ar
     6     2     3   ar
     7     3     4   ar
     8     3    30    1
     9     4     5   ar
    10     4    31    1
    11     5     6   ar
    12     5    32    1
    13     6     7   ar
    14     6    33    1
    15     7     8    1
    16     8     9    1
    17     9    10    1
    18     9    11    1
    19     9    12    1
    20    11    34    1
    21    11    35    1
    22    11    36    1
    23    12    13    1
    24    12    37    1
    25    12    38    1
    26    13    14   am
    27    13    39    1
    28    14    15    2
    29    14    16   am
    30    16    17    1
    31    16    24    1
    32    17    18    1
    33    17    40    1
    34    17    41    1
    35    18    23   ar
    36    18    19   ar
    37    19    20   ar
    38    19    42    1
    39    20    21   ar
    40    20    43    1
    41    21    22   ar
    42    21    44    1
    43    22    23   ar
    44    23    45    1
    45    24    25    1
    46    24    26    1
    47    24    46    1
    48    25    47    1
    49    25    48    1
    50    25    49    1
    51    26    50    1
    52    26    51    1
    53    26    52    1
@<TRIPOS>SUBSTRUCTURE
     1 ZINC000074782190        1 TEMP              0 ****  ****    0 ROOT


##########                                Name:    ZINC000496437542
##########                DOCK_Rotatable_Bonds:                   7
##########                         Heavy_Atoms:                  24
##########                    Molecular_Weight:             338.447
##########                DOCK_Rotatable_Bonds:                   7
##########                       Formal_Charge:           0.0400002
##########                     HBond_Acceptors:                   6
##########                        HBond_Donors:                   1
##########                         Heavy_Atoms:                  24
##########                          Grid_Score:          -30.221502
##########                     Grid_vdw_energy:          -29.345201
##########                      Grid_es_energy:           -0.876301
##########           Internal_energy_repulsive:           16.150862

@<TRIPOS>MOLECULE
ZINC000496437542
 54 55 1 0 0
SMALL
USER_CHARGES


@<TRIPOS>ATOM
      1 C1         -6.6105    2.4601   56.1426 C.3     1  ZINC000496437542   -0.1800
      2 C2         -5.8279    3.0244   54.9552 C.3     1  ZINC000496437542    0.1400
      3 C3         -6.6579    4.1098   54.2668 C.3     1  ZINC000496437542   -0.1800
      4 C4         -4.5120    3.6267   55.4517 C.3     1  ZINC000496437542   -0.1400
      5 O5         -5.5463    1.9584   54.0105 O.3     1  ZINC000496437542   -0.3600
      6 C6         -6.3747    1.8418   52.9556 C.2     1  ZINC000496437542    0.6600
      7 O7         -7.5073    1.4315   53.1150 O.2     1  ZINC000496437542   -0.5600
      8 N8         -5.9477    2.1801   51.7228 N.am    1  ZINC000496437542   -0.6000
      9 C9         -6.8349    2.0612   50.5549 C.3     1  ZINC000496437542    0.0800
     10 C10        -6.8084    3.3896   49.7903 C.3     1  ZINC000496437542    0.0500
     11 O11        -5.4515    3.7516   49.5226 O.3     1  ZINC000496437542   -0.3700
     12 C12        -4.6642    3.9781   50.6943 C.3     1  ZINC000496437542    0.0700
     13 H13        -5.1283    4.7565   51.2999 H       1  ZINC000496437542    0.0700
     14 C14        -3.2568    4.4186   50.2869 C.3     1  ZINC000496437542    0.1300
     15 N15        -2.7580    3.5402   49.2259 N.am    1  ZINC000496437542   -0.7200
     16 C16        -1.6144    2.8497   49.4047 C.2     1  ZINC000496437542    0.5600
     17 O17        -0.9973    2.9548   50.4474 O.2     1  ZINC000496437542   -0.5400
     18 C18        -1.1126    1.9690   48.3387 C.2     1  ZINC000496437542   -0.1900
     19 C19        -0.9252    0.6895   48.5803 C.2     1  ZINC000496437542   -0.0600
     20 C20        -0.4086   -0.2260   47.4905 C.3     1  ZINC000496437542   -0.1000
     21 C21        -1.5197   -0.4300   46.4581 C.3     1  ZINC000496437542   -0.1100
     22 C22        -1.5098    0.6844   45.4278 C.3     1  ZINC000496437542   -0.1200
     23 C23        -1.8827    2.0437   45.9907 C.3     1  ZINC000496437542   -0.1200
     24 C24        -0.8198    2.5380   46.9665 C.3     1  ZINC000496437542   -0.0800
     25 C25        -4.5827    2.6852   51.5059 C.3     1  ZINC000496437542    0.1000
     26 H26        -7.5481    2.0310   55.7889 H       1  ZINC000496437542    0.0900
     27 H27        -6.0192    1.6869   56.6330 H       1  ZINC000496437542    0.0600
     28 H28        -6.8219    3.2604   56.8518 H       1  ZINC000496437542    0.0700
     29 H29        -6.8693    4.9101   54.9760 H       1  ZINC000496437542    0.0700
     30 H30        -6.1003    4.5120   53.4209 H       1  ZINC000496437542    0.0600
     31 H31        -7.5954    3.6808   53.9131 H       1  ZINC000496437542    0.0900
     32 H32        -3.9206    2.8534   55.9421 H       1  ZINC000496437542    0.0700
     33 H33        -3.9544    4.0287   54.6058 H       1  ZINC000496437542    0.0700
     34 H34        -4.7234    4.4270   56.1609 H       1  ZINC000496437542    0.0800
     35 H35        -6.4836    1.2578   49.9073 H       1  ZINC000496437542    0.0800
     36 H36        -7.8514    1.8485   50.8860 H       1  ZINC000496437542    0.1000
     37 H37        -7.3480    3.2792   48.8496 H       1  ZINC000496437542    0.1100
     38 H38        -7.2802    4.1659   50.3926 H       1  ZINC000496437542    0.0600
     39 H39        -3.2885    5.4458   49.9233 H       1  ZINC000496437542    0.0900
     40 H40        -2.5934    4.3592   51.1498 H       1  ZINC000496437542    0.0800
     41 H41        -3.2508    3.4553   48.3948 H       1  ZINC000496437542    0.4000
     42 H42        -1.1405    0.2902   49.5605 H       1  ZINC000496437542    0.1300
     43 H43         0.4579    0.2290   47.0106 H       1  ZINC000496437542    0.0800
     44 H44        -0.1287   -1.1870   47.9219 H       1  ZINC000496437542    0.0800
     45 H45        -1.3703   -1.3852   45.9546 H       1  ZINC000496437542    0.0700
     46 H46        -2.4840   -0.4402   46.9661 H       1  ZINC000496437542    0.0700
     47 H47        -0.5114    0.7492   44.9951 H       1  ZINC000496437542    0.0600
     48 H48        -2.2134    0.4314   44.6348 H       1  ZINC000496437542    0.0600
     49 H49        -1.9782    2.7570   45.1720 H       1  ZINC000496437542    0.0700
     50 H50        -2.8371    1.9667   46.5114 H       1  ZINC000496437542    0.0600
     51 H51        -0.8413    3.6270   47.0103 H       1  ZINC000496437542    0.0700
     52 H52         0.1635    2.2015   46.6379 H       1  ZINC000496437542    0.0800
     53 H53        -4.1063    2.8838   52.4660 H       1  ZINC000496437542    0.1100
     54 H54        -4.0054    1.9421   50.9559 H       1  ZINC000496437542    0.0900
@<TRIPOS>BOND
     1     1     2    1
     2     1    26    1
     3     1    27    1
     4     1    28    1
     5     2     3    1
     6     2     4    1
     7     2     5    1
     8     3    29    1
     9     3    30    1
    10     3    31    1
    11     4    32    1
    12     4    33    1
    13     4    34    1
    14     5     6    1
    15     6     7    2
    16     6     8   am
    17     8    25    1
    18     8     9    1
    19     9    10    1
    20     9    35    1
    21     9    36    1
    22    10    11    1
    23    10    37    1
    24    10    38    1
    25    11    12    1
    26    12    13    1
    27    12    14    1
    28    12    25    1
    29    14    15    1
    30    14    39    1
    31    14    40    1
    32    15    16   am
    33    15    41    1
    34    16    17    2
    35    16    18    1
    36    18    24    1
    37    18    19    2
    38    19    20    1
    39    19    42    1
    40    20    21    1
    41    20    43    1
    42    20    44    1
    43    21    22    1
    44    21    45    1
    45    21    46    1
    46    22    23    1
    47    22    47    1
    48    22    48    1
    49    23    24    1
    50    23    49    1
    51    23    50    1
    52    24    51    1
    53    24    52    1
    54    25    53    1
    55    25    54    1
@<TRIPOS>SUBSTRUCTURE
     1 ZINC000496437542        1 TEMP              0 ****  ****    0 ROOT


##########                                Name:    ZINC000186316242
##########                DOCK_Rotatable_Bonds:                   7
##########                         Heavy_Atoms:                  28
##########                    Molecular_Weight:             392.525
##########                DOCK_Rotatable_Bonds:                   7
##########                       Formal_Charge:         -0.00999981
##########                     HBond_Acceptors:                   6
##########                        HBond_Donors:                   0
##########                         Heavy_Atoms:                  28
##########                          Grid_Score:          -30.221367
##########                     Grid_vdw_energy:          -29.998474
##########                      Grid_es_energy:           -0.222893
##########           Internal_energy_repulsive:           24.149668

@<TRIPOS>MOLECULE
ZINC000186316242
 52 55 1 0 0
SMALL
USER_CHARGES


@<TRIPOS>ATOM
      1 C1         -9.0887    3.2921   52.7116 C.3     1  ZINC000186316242   -0.1500
      2 C2         -8.5668    2.1557   53.5932 C.3     1  ZINC000186316242    0.1000
      3 N3         -8.7737    0.8750   52.9125 N.am    1  ZINC000186316242   -0.5900
      4 C4         -7.9831    0.5261   51.8783 C.2     1  ZINC000186316242    0.5900
      5 O5         -8.1550   -0.5371   51.3132 O.2     1  ZINC000186316242   -0.5000
      6 C6         -6.9105    1.4325   51.4324 C.2     1  ZINC000186316242    0.0100
      7 C7         -6.9232    2.0392   50.2118 C.2     1  ZINC000186316242   -0.2100
      8 S8         -5.5222    3.0076   50.0572 S.3     1  ZINC000186316242    0.2000
      9 C9         -4.9932    2.5332   51.6670 C.2     1  ZINC000186316242    0.0700
     10 C10        -3.7507    2.9909   52.3263 C.ar    1  ZINC000186316242    0.1900
     11 C11        -2.8865    3.8526   51.6517 C.ar    1  ZINC000186316242   -0.1500
     12 C12        -1.7280    4.2725   52.2822 C.ar    1  ZINC000186316242   -0.0700
     13 C13        -1.4709    3.8171   53.5673 C.ar    1  ZINC000186316242   -0.1600
     14 C14        -2.3718    2.9631   54.1781 C.ar    1  ZINC000186316242    0.1100
     15 N15        -3.4696    2.5823   53.5585 N.ar    1  ZINC000186316242   -0.4500
     16 N16        -5.8633    1.7243   52.1892 N.2     1  ZINC000186316242   -0.3900
     17 C17        -9.8402   -0.0263   53.3559 C.3     1  ZINC000186316242    0.1400
     18 H18        -9.9962   -0.8167   52.6219 H       1  ZINC000186316242    0.1000
     19 C19       -11.1504    0.7627   53.5813 C.3     1  ZINC000186316242   -0.1300
     20 C20       -11.7378    0.1026   54.8540 C.3     1  ZINC000186316242    0.0400
     21 N21       -10.5342   -0.1782   55.6777 N.3     1  ZINC000186316242   -0.4900
     22 C22       -10.8141   -1.2113   56.6838 C.3     1  ZINC000186316242    0.0800
     23 C23        -9.5178   -1.6953   57.2808 C.ar    1  ZINC000186316242   -0.0700
     24 C24        -9.2330   -3.0476   57.3109 C.ar    1  ZINC000186316242   -0.1000
     25 C25        -8.0439   -3.4914   57.8586 C.ar    1  ZINC000186316242   -0.1200
     26 C26        -7.1395   -2.5830   58.3759 C.ar    1  ZINC000186316242   -0.1200
     27 C27        -7.4239   -1.2306   58.3449 C.ar    1  ZINC000186316242   -0.1200
     28 C28        -8.6111   -0.7863   57.7934 C.ar    1  ZINC000186316242   -0.1100
     29 C29        -9.4918   -0.6322   54.7282 C.3     1  ZINC000186316242    0.0400
     30 H30        -8.9347    4.2449   53.2180 H       1  ZINC000186316242    0.0700
     31 H31        -8.5504    3.2932   51.7638 H       1  ZINC000186316242    0.0500
     32 H32       -10.1528    3.1476   52.5249 H       1  ZINC000186316242    0.0400
     33 H33        -7.5027    2.3001   53.7799 H       1  ZINC000186316242    0.1200
     34 H34        -9.1051    2.1545   54.5410 H       1  ZINC000186316242    0.0700
     35 H35        -7.6935    1.9265   49.4633 H       1  ZINC000186316242    0.1900
     36 H36        -3.1177    4.1873   50.6512 H       1  ZINC000186316242    0.1400
     37 H37        -1.0394    4.9394   51.7847 H       1  ZINC000186316242    0.1400
     38 H38        -0.5754    4.1262   54.0860 H       1  ZINC000186316242    0.1400
     39 H39        -2.1739    2.6068   55.1782 H       1  ZINC000186316242    0.1600
     40 H40       -10.9400    1.8179   53.7561 H       1  ZINC000186316242    0.0900
     41 H41       -11.8261    0.6382   52.7351 H       1  ZINC000186316242    0.0700
     42 H42       -12.4059    0.7913   55.3712 H       1  ZINC000186316242    0.0800
     43 H43       -12.2566   -0.8225   54.6029 H       1  ZINC000186316242    0.0400
     44 H44       -11.4422   -0.7923   57.4698 H       1  ZINC000186316242    0.0400
     45 H45       -11.3313   -2.0471   56.2123 H       1  ZINC000186316242    0.0800
     46 H46        -9.9396   -3.7574   56.9069 H       1  ZINC000186316242    0.1200
     47 H47        -7.8217   -4.5480   57.8827 H       1  ZINC000186316242    0.1200
     48 H48        -6.2107   -2.9297   58.8044 H       1  ZINC000186316242    0.1200
     49 H49        -6.7174   -0.5207   58.7493 H       1  ZINC000186316242    0.1200
     50 H50        -8.8333    0.2703   57.7692 H       1  ZINC000186316242    0.1200
     51 H51        -9.4938   -1.7205   54.6671 H       1  ZINC000186316242    0.0500
     52 H52        -8.5138   -0.2775   55.0530 H       1  ZINC000186316242    0.0800
@<TRIPOS>BOND
     1     1     2    1
     2     1    30    1
     3     1    31    1
     4     1    32    1
     5     2     3    1
     6     2    33    1
     7     2    34    1
     8     3     4   am
     9     3    17    1
    10     4     5    2
    11     4     6    1
    12     6    16    1
    13     6     7    2
    14     7     8    1
    15     7    35    1
    16     8     9    1
    17     9    10    1
    18     9    16    2
    19    10    15   ar
    20    10    11   ar
    21    11    12   ar
    22    11    36    1
    23    12    13   ar
    24    12    37    1
    25    13    14   ar
    26    13    38    1
    27    14    15   ar
    28    14    39    1
    29    17    18    1
    30    17    29    1
    31    17    19    1
    32    19    20    1
    33    19    40    1
    34    19    41    1
    35    20    21    1
    36    20    42    1
    37    20    43    1
    38    21    22    1
    39    21    29    1
    40    22    23    1
    41    22    44    1
    42    22    45    1
    43    23    28   ar
    44    23    24   ar
    45    24    25   ar
    46    24    46    1
    47    25    26   ar
    48    25    47    1
    49    26    27   ar
    50    26    48    1
    51    27    28   ar
    52    27    49    1
    53    28    50    1
    54    29    51    1
    55    29    52    1
@<TRIPOS>SUBSTRUCTURE
     1 ZINC000186316242        1 TEMP              0 ****  ****    0 ROOT


##########                                Name:    ZINC000171059239
##########                DOCK_Rotatable_Bonds:                   8
##########                         Heavy_Atoms:                  25
##########                    Molecular_Weight:              333.39
##########                DOCK_Rotatable_Bonds:                   8
##########                       Formal_Charge:         1.10269e-06
##########                     HBond_Acceptors:                   5
##########                        HBond_Donors:                   4
##########                         Heavy_Atoms:                  25
##########                          Grid_Score:          -30.197533
##########                     Grid_vdw_energy:          -28.656750
##########                      Grid_es_energy:           -1.540782
##########           Internal_energy_repulsive:            5.075606

@<TRIPOS>MOLECULE
ZINC000171059239
 44 46 1 0 0
SMALL
USER_CHARGES


@<TRIPOS>ATOM
      1 N1         -1.2162   -0.7071   46.6334 N.am    1  ZINC000171059239   -0.8500
      2 C2         -1.7275    0.5191   46.8597 C.2     1  ZINC000171059239    0.5600
      3 O3         -1.9937    1.2487   45.9246 O.2     1  ZINC000171059239   -0.5400
      4 C4         -1.9643    0.9771   48.2454 C.ar    1  ZINC000171059239   -0.1400
      5 C5         -1.0009    0.7568   49.2307 C.ar    1  ZINC000171059239   -0.0900
      6 C6         -1.2280    1.1871   50.5218 C.ar    1  ZINC000171059239   -0.1200
      7 C7         -2.4079    1.8351   50.8406 C.ar    1  ZINC000171059239   -0.0800
      8 C8         -3.3676    2.0563   49.8685 C.ar    1  ZINC000171059239   -0.0900
      9 C9         -4.6500    2.7627   50.2251 C.3     1  ZINC000171059239   -0.0900
     10 C10        -5.7684    1.7331   50.3982 C.3     1  ZINC000171059239    0.1400
     11 N11        -6.5662    2.0725   51.5791 N.am    1  ZINC000171059239   -0.7400
     12 C12        -7.6678    1.3554   51.8770 C.2     1  ZINC000171059239    0.7000
     13 O13        -7.9986    0.4259   51.1664 O.2     1  ZINC000171059239   -0.5700
     14 N14        -8.4027    1.6687   52.9625 N.am    1  ZINC000171059239   -0.6800
     15 C15        -9.5439    0.9258   53.2711 C.ar    1  ZINC000171059239    0.1700
     16 C16        -9.5912    0.1497   54.4486 C.ar    1  ZINC000171059239   -0.0600
     17 C17        -8.5032    0.1030   55.3342 C.ar    1  ZINC000171059239   -0.1100
     18 C18        -8.5839   -0.6564   56.4615 C.ar    1  ZINC000171059239   -0.1100
     19 C19        -9.7325   -1.3904   56.7506 C.ar    1  ZINC000171059239   -0.1200
     20 C20       -10.8065   -1.3690   55.9148 C.ar    1  ZINC000171059239   -0.1000
     21 C21       -10.7598   -0.5958   54.7418 C.ar    1  ZINC000171059239   -0.0400
     22 C22       -11.8498   -0.5496   53.8563 C.ar    1  ZINC000171059239   -0.1200
     23 C23       -11.7770    0.2082   52.7274 C.ar    1  ZINC000171059239   -0.0900
     24 C24       -10.6365    0.9484   52.4313 C.ar    1  ZINC000171059239   -0.1200
     25 C25        -3.1503    1.6368   48.5725 C.ar    1  ZINC000171059239   -0.0500
     26 H26        -1.0619   -1.0081   45.7242 H       1  ZINC000171059239    0.4100
     27 H27        -0.9990   -1.2873   47.3798 H       1  ZINC000171059239    0.4000
     28 H28        -0.0797    0.2503   48.9831 H       1  ZINC000171059239    0.1300
     29 H29        -0.4832    1.0172   51.2853 H       1  ZINC000171059239    0.1300
     30 H30        -2.5809    2.1697   51.8529 H       1  ZINC000171059239    0.1300
     31 H31        -4.5151    3.3128   51.1565 H       1  ZINC000171059239    0.0800
     32 H32        -4.9159    3.4574   49.4282 H       1  ZINC000171059239    0.0800
     33 H33        -6.4068    1.7381   49.5147 H       1  ZINC000171059239    0.0700
     34 H34        -5.3331    0.7420   50.5263 H       1  ZINC000171059239    0.0700
     35 H35        -6.3015    2.8133   52.1467 H       1  ZINC000171059239    0.4000
     36 H36        -8.1387    2.4102   53.5294 H       1  ZINC000171059239    0.4100
     37 H37        -7.6065    0.6664   55.1224 H       1  ZINC000171059239    0.1200
     38 H38        -7.7453   -0.6904   57.1412 H       1  ZINC000171059239    0.1200
     39 H39        -9.7709   -1.9855   57.6510 H       1  ZINC000171059239    0.1200
     40 H40       -11.6900   -1.9433   56.1515 H       1  ZINC000171059239    0.1300
     41 H41       -12.7446   -1.1150   54.0709 H       1  ZINC000171059239    0.1300
     42 H42       -12.6196    0.2379   52.0525 H       1  ZINC000171059239    0.1300
     43 H43       -10.6042    1.5417   51.5294 H       1  ZINC000171059239    0.1400
     44 H44        -3.8999    1.8103   47.8147 H       1  ZINC000171059239    0.1400
@<TRIPOS>BOND
     1     1     2   am
     2     1    26    1
     3     1    27    1
     4     2     3    2
     5     2     4    1
     6     4    25   ar
     7     4     5   ar
     8     5     6   ar
     9     5    28    1
    10     6     7   ar
    11     6    29    1
    12     7     8   ar
    13     7    30    1
    14     8     9    1
    15     8    25   ar
    16     9    10    1
    17     9    31    1
    18     9    32    1
    19    10    11    1
    20    10    33    1
    21    10    34    1
    22    11    12   am
    23    11    35    1
    24    12    13    2
    25    12    14   am
    26    14    15    1
    27    14    36    1
    28    15    24   ar
    29    15    16   ar
    30    16    21   ar
    31    16    17   ar
    32    17    18   ar
    33    17    37    1
    34    18    19   ar
    35    18    38    1
    36    19    20   ar
    37    19    39    1
    38    20    21   ar
    39    20    40    1
    40    21    22   ar
    41    22    23   ar
    42    22    41    1
    43    23    24   ar
    44    23    42    1
    45    24    43    1
    46    25    44    1
@<TRIPOS>SUBSTRUCTURE
     1 ZINC000171059239        1 TEMP              0 ****  ****    0 ROOT


##########                                Name:    ZINC000004313955
##########                DOCK_Rotatable_Bonds:                   6
##########                         Heavy_Atoms:                  26
##########                    Molecular_Weight:             414.358
##########                DOCK_Rotatable_Bonds:                   6
##########                       Formal_Charge:           0.0299997
##########                     HBond_Acceptors:                   9
##########                        HBond_Donors:                   2
##########                         Heavy_Atoms:                  26
##########                          Grid_Score:          -30.172010
##########                     Grid_vdw_energy:          -29.179665
##########                      Grid_es_energy:           -0.992345
##########           Internal_energy_repulsive:           12.434356

@<TRIPOS>MOLECULE
ZINC000004313955
 47 49 1 0 0
SMALL
USER_CHARGES


@<TRIPOS>ATOM
      1 C1         -1.2335   -0.8206   47.1176 C.3     1  ZINC000004313955   -0.1500
      2 C2         -1.0683    0.6997   47.0657 C.3     1  ZINC000004313955   -0.1100
      3 H3         -1.9050    1.1382   46.5219 H       1  ZINC000004313955    0.0800
      4 C4          0.2415    1.0471   46.3545 C.3     1  ZINC000004313955   -0.1100
      5 C5          0.3918    2.5679   46.2730 C.3     1  ZINC000004313955   -0.1100
      6 H6          1.3134    2.8147   45.7457 H       1  ZINC000004313955    0.0900
      7 C7         -0.8015    3.1594   45.5199 C.3     1  ZINC000004313955   -0.1500
      8 C8          0.4421    3.1487   47.6897 C.3     1  ZINC000004313955    0.1200
      9 N9         -0.7459    2.6985   48.4278 N.am    1  ZINC000004313955   -0.6000
     10 C10        -1.5557    3.5887   49.0345 C.2     1  ZINC000004313955    0.5400
     11 O11        -1.3059    4.7741   48.9754 O.2     1  ZINC000004313955   -0.5300
     12 C12        -2.7714    3.1113   49.7862 C.3     1  ZINC000004313955   -0.1400
     13 S13        -4.0812    2.6904   48.6100 S.3     1  ZINC000004313955    0.0800
     14 C14        -5.4658    2.6418   49.6987 C.2     1  ZINC000004313955    0.1100
     15 N15        -6.5412    3.3938   49.6263 N.2     1  ZINC000004313955   -0.2800
     16 N16        -7.3529    3.0959   50.5770 N.2     1  ZINC000004313955   -0.2400
     17 C17        -6.8460    2.1356   51.3147 C.2     1  ZINC000004313955    0.2500
     18 C18        -7.4724    1.5157   52.5016 C.ar    1  ZINC000004313955   -0.0100
     19 C19        -8.3101    0.4093   52.3541 C.ar    1  ZINC000004313955   -0.0700
     20 C20        -8.8920   -0.1649   53.4653 C.ar    1  ZINC000004313955   -0.1100
     21 C21        -8.6470    0.3540   54.7254 C.ar    1  ZINC000004313955   -0.0100
     22 Cl22       -9.3838   -0.3745   56.1183 Cl      1  ZINC000004313955   -0.0500
     23 C23        -7.8165    1.4513   54.8794 C.ar    1  ZINC000004313955   -0.1100
     24 C24        -7.2237    2.0314   53.7759 C.ar    1  ZINC000004313955    0.0100
     25 Cl25       -6.1828    3.4070   53.9699 Cl      1  ZINC000004313955   -0.0100
     26 N26        -5.6241    1.8115   50.7717 N.pl3   1  ZINC000004313955   -0.3000
     27 N27        -4.7483    0.8627   51.2175 N.3     1  ZINC000004313955   -0.5800
     28 C28        -1.0354    1.2593   48.4913 C.3     1  ZINC000004313955    0.1100
     29 H29        -2.1659   -1.0676   47.6252 H       1  ZINC000004313955    0.0600
     30 H30        -1.2556   -1.2184   46.1031 H       1  ZINC000004313955    0.0600
     31 H31        -0.3966   -1.2586   47.6614 H       1  ZINC000004313955    0.0600
     32 H32         1.0796    0.6287   46.9119 H       1  ZINC000004313955    0.0700
     33 H33         0.2302    0.6288   45.3480 H       1  ZINC000004313955    0.0700
     34 H34        -1.7227    2.9133   46.0481 H       1  ZINC000004313955    0.0600
     35 H35        -0.6940    4.2425   45.4621 H       1  ZINC000004313955    0.0600
     36 H36        -0.8379    2.7436   44.5129 H       1  ZINC000004313955    0.0600
     37 H37         1.3415    2.7988   48.1963 H       1  ZINC000004313955    0.0700
     38 H38         0.4494    4.2375   47.6381 H       1  ZINC000004313955    0.1000
     39 H39        -2.5127    2.2297   50.3728 H       1  ZINC000004313955    0.1300
     40 H40        -3.1204    3.9009   50.4516 H       1  ZINC000004313955    0.1300
     41 H41        -8.5028    0.0037   51.3719 H       1  ZINC000004313955    0.1600
     42 H42        -9.5404   -1.0212   53.3520 H       1  ZINC000004313955    0.1500
     43 H43        -7.6293    1.8516   55.8647 H       1  ZINC000004313955    0.1500
     44 H44        -4.0282    0.6854   50.5333 H       1  ZINC000004313955    0.3700
     45 H45        -4.3470    1.1291   52.1041 H       1  ZINC000004313955    0.3800
     46 H46        -2.0024    1.1020   48.9690 H       1  ZINC000004313955    0.0900
     47 H47        -0.2566    0.7548   49.0633 H       1  ZINC000004313955    0.0800
@<TRIPOS>BOND
     1     1     2    1
     2     1    29    1
     3     1    30    1
     4     1    31    1
     5     2     3    1
     6     2    28    1
     7     2     4    1
     8     4     5    1
     9     4    32    1
    10     4    33    1
    11     5     6    1
    12     5     7    1
    13     5     8    1
    14     7    34    1
    15     7    35    1
    16     7    36    1
    17     8     9    1
    18     8    37    1
    19     8    38    1
    20     9    10   am
    21     9    28    1
    22    10    11    2
    23    10    12    1
    24    12    13    1
    25    12    39    1
    26    12    40    1
    27    13    14    1
    28    14    26    1
    29    14    15    2
    30    15    16    1
    31    16    17    2
    32    17    18    1
    33    17    26    1
    34    18    24   ar
    35    18    19   ar
    36    19    20   ar
    37    19    41    1
    38    20    21   ar
    39    20    42    1
    40    21    22    1
    41    21    23   ar
    42    23    24   ar
    43    23    43    1
    44    24    25    1
    45    26    27    1
    46    27    44    1
    47    27    45    1
    48    28    46    1
    49    28    47    1
@<TRIPOS>SUBSTRUCTURE
     1 ZINC000004313955        1 TEMP              0 ****  ****    0 ROOT


##########                                Name:    ZINC000981048968
##########                DOCK_Rotatable_Bonds:                   7
##########                         Heavy_Atoms:                  25
##########                    Molecular_Weight:             344.414
##########                DOCK_Rotatable_Bonds:                   7
##########                       Formal_Charge:                0.02
##########                     HBond_Acceptors:                   7
##########                        HBond_Donors:                   2
##########                         Heavy_Atoms:                  25
##########                          Grid_Score:          -30.158182
##########                     Grid_vdw_energy:          -29.044117
##########                      Grid_es_energy:           -1.114066
##########           Internal_energy_repulsive:            5.169847

@<TRIPOS>MOLECULE
ZINC000981048968
 49 52 1 0 0
SMALL
USER_CHARGES


@<TRIPOS>ATOM
      1 C1         -3.7302    3.0645   49.6491 C.3     1  ZINC000981048968   -0.0800
      2 C2         -4.8458    2.7388   50.6086 C.2     1  ZINC000981048968   -0.0100
      3 C3         -5.6938    1.7053   50.4937 C.2     1  ZINC000981048968   -0.1600
      4 C4         -6.5972    1.7934   51.6502 C.2     1  ZINC000981048968   -0.2300
      5 C5         -7.7096    0.8857   51.9829 C.2     1  ZINC000981048968    0.5900
      6 O6         -8.0717    0.0477   51.1795 O.2     1  ZINC000981048968   -0.5300
      7 N7         -8.3256    0.9845   53.1777 N.am    1  ZINC000981048968   -0.7300
      8 C8         -9.4326    0.0834   53.5077 C.3     1  ZINC000981048968    0.1500
      9 H9         -9.3187   -0.8495   52.9556 H       1  ZINC000981048968    0.0900
     10 C10       -10.7589    0.7436   53.1254 C.3     1  ZINC000981048968   -0.1300
     11 C11       -11.9149   -0.1974   53.4701 C.3     1  ZINC000981048968   -0.1200
     12 C12       -11.9047   -0.4892   54.9720 C.3     1  ZINC000981048968   -0.1100
     13 C13       -10.5785   -1.1493   55.3543 C.3     1  ZINC000981048968    0.1000
     14 H14       -10.4645   -2.0822   54.8021 H       1  ZINC000981048968    0.0500
     15 N15       -10.5686   -1.4294   56.7962 N.3     1  ZINC000981048968   -0.6800
     16 C16        -9.5341   -2.4162   57.1339 C.3     1  ZINC000981048968    0.1500
     17 C17        -8.6599   -1.8713   58.2338 C.2     1  ZINC000981048968    0.1800
     18 N18        -7.3647   -1.9530   58.2985 N.2     1  ZINC000981048968   -0.3800
     19 O19        -6.9601   -1.4157   59.3080 O.3     1  ZINC000981048968    0.0800
     20 C20        -7.9900   -0.9252   60.0041 C.2     1  ZINC000981048968    0.2100
     21 C21        -7.9164   -0.1860   61.3153 C.3     1  ZINC000981048968   -0.0800
     22 C22        -8.6992    1.1234   61.4329 C.3     1  ZINC000981048968   -0.1600
     23 C23        -9.1868   -0.1281   62.1659 C.3     1  ZINC000981048968   -0.1500
     24 N24        -9.0767   -1.2059   59.3259 N.2     1  ZINC000981048968   -0.4600
     25 C25        -9.4224   -0.2083   55.0096 C.3     1  ZINC000981048968   -0.1300
     26 C26        -6.1899    2.8904   52.3516 C.2     1  ZINC000981048968    0.0200
     27 O27        -5.1460    3.4328   51.7174 O.3     1  ZINC000981048968   -0.1700
     28 H28        -3.2023    3.9536   49.9940 H       1  ZINC000981048968    0.0800
     29 H29        -3.0359    2.2256   49.6008 H       1  ZINC000981048968    0.0900
     30 H30        -4.1455    3.2499   48.6585 H       1  ZINC000981048968    0.0900
     31 H31        -5.7097    0.9610   49.7113 H       1  ZINC000981048968    0.1600
     32 H32        -8.0360    1.6521   53.8190 H       1  ZINC000981048968    0.4000
     33 H33       -10.8728    1.6765   53.6776 H       1  ZINC000981048968    0.0700
     34 H34       -10.7661    0.9513   52.0555 H       1  ZINC000981048968    0.0700
     35 H35       -12.8598    0.2729   53.1977 H       1  ZINC000981048968    0.0700
     36 H36       -11.8010   -1.1304   52.9180 H       1  ZINC000981048968    0.0600
     37 H37       -12.0186    0.4437   55.5241 H       1  ZINC000981048968    0.0700
     38 H38       -12.7283   -1.1596   55.2175 H       1  ZINC000981048968    0.0700
     39 H39       -10.4465   -0.5809   57.3286 H       1  ZINC000981048968    0.3500
     40 H40       -10.0079   -3.3387   57.4695 H       1  ZINC000981048968    0.1100
     41 H41        -8.9252   -2.6200   56.2531 H       1  ZINC000981048968    0.0600
     42 H42        -6.9626   -0.2512   61.8389 H       1  ZINC000981048968    0.1500
     43 H43        -8.2604    1.9198   62.0339 H       1  ZINC000981048968    0.1200
     44 H44        -9.2674    1.4500   60.5620 H       1  ZINC000981048968    0.1100
     45 H45       -10.0758   -0.6246   61.7772 H       1  ZINC000981048968    0.1000
     46 H46        -9.0688   -0.1548   63.2492 H       1  ZINC000981048968    0.1200
     47 H47        -8.4775   -0.6786   55.2819 H       1  ZINC000981048968    0.0700
     48 H48        -9.5362    0.7246   55.5617 H       1  ZINC000981048968    0.0800
     49 H49        -6.6335    3.2561   53.2658 H       1  ZINC000981048968    0.2100
@<TRIPOS>BOND
     1     1     2    1
     2     1    28    1
     3     1    29    1
     4     1    30    1
     5     2    27    1
     6     2     3    2
     7     3     4    1
     8     3    31    1
     9     4     5    1
    10     4    26    2
    11     5     6    2
    12     5     7   am
    13     7     8    1
    14     7    32    1
    15     8     9    1
    16     8    25    1
    17     8    10    1
    18    10    11    1
    19    10    33    1
    20    10    34    1
    21    11    12    1
    22    11    35    1
    23    11    36    1
    24    12    13    1
    25    12    37    1
    26    12    38    1
    27    13    14    1
    28    13    15    1
    29    13    25    1
    30    15    16    1
    31    15    39    1
    32    16    17    1
    33    16    40    1
    34    16    41    1
    35    17    24    1
    36    17    18    2
    37    18    19    1
    38    19    20    1
    39    20    21    1
    40    20    24    2
    41    21    23    1
    42    21    22    1
    43    21    42    1
    44    22    23    1
    45    22    43    1
    46    22    44    1
    47    23    45    1
    48    23    46    1
    49    25    47    1
    50    25    48    1
    51    26    27    1
    52    26    49    1
@<TRIPOS>SUBSTRUCTURE
     1 ZINC000981048968        1 TEMP              0 ****  ****    0 ROOT


##########                                Name:    ZINC000572148596
##########                DOCK_Rotatable_Bonds:                   4
##########                         Heavy_Atoms:                  26
##########                    Molecular_Weight:             371.463
##########                DOCK_Rotatable_Bonds:                   4
##########                       Formal_Charge:          -0.0199999
##########                     HBond_Acceptors:                   8
##########                        HBond_Donors:                   0
##########                         Heavy_Atoms:                  26
##########                          Grid_Score:          -30.144884
##########                     Grid_vdw_energy:          -30.636324
##########                      Grid_es_energy:            0.491439
##########           Internal_energy_repulsive:            5.734124

@<TRIPOS>MOLECULE
ZINC000572148596
 47 50 1 0 0
SMALL
USER_CHARGES


@<TRIPOS>ATOM
      1 C1        -15.0578    2.3770   49.0162 C.3     1  ZINC000572148596   -0.1400
      2 C2        -14.1071    1.1914   49.1935 C.3     1  ZINC000572148596    0.0800
      3 H3        -13.1164    1.4624   48.8285 H       1  ZINC000572148596    0.1200
      4 C4        -14.0227    0.8292   50.6538 C.2     1  ZINC000572148596    0.1800
      5 N5        -15.0169    0.7773   51.4906 N.2     1  ZINC000572148596   -0.3500
      6 O6        -14.6278    0.4548   52.5931 O.3     1  ZINC000572148596    0.0900
      7 C7        -13.2996    0.2627   52.5658 C.2     1  ZINC000572148596    0.2300
      8 C8        -12.4429   -0.1380   53.6993 C.ar    1  ZINC000572148596   -0.1200
      9 C9        -13.0134   -0.5099   54.9252 C.ar    1  ZINC000572148596   -0.0100
     10 C10       -12.1805   -0.8744   55.9496 C.ar    1  ZINC000572148596   -0.1900
     11 C11       -10.8025   -0.8654   55.7462 C.ar    1  ZINC000572148596    0.3400
     12 N12        -9.9566   -1.2342   56.7808 N.3     1  ZINC000572148596   -0.4700
     13 C13        -8.6870   -0.4962   56.7118 C.3     1  ZINC000572148596    0.0300
     14 C14        -7.8092   -0.8890   57.9030 C.3     1  ZINC000572148596    0.0900
     15 H15        -6.8444   -0.3875   57.8253 H       1  ZINC000572148596    0.1100
     16 C16        -8.4978   -0.4728   59.2044 C.3     1  ZINC000572148596   -0.1800
     17 O17        -7.6129   -2.3056   57.8975 O.3     1  ZINC000572148596   -0.3700
     18 C18        -8.8288   -3.0556   57.9643 C.3     1  ZINC000572148596    0.0800
     19 H19        -9.3494   -2.8228   58.8932 H       1  ZINC000572148596    0.0700
     20 C20        -8.5097   -4.5512   57.9185 C.3     1  ZINC000572148596   -0.1400
     21 C21        -9.7169   -2.6846   56.7737 C.3     1  ZINC000572148596    0.0300
     22 N22       -10.2889   -0.5095   54.5770 N.ar    1  ZINC000572148596   -0.5200
     23 C23       -11.0542   -0.1577   53.5645 C.ar    1  ZINC000572148596    0.1900
     24 N24       -12.9091    0.4962   51.3244 N.2     1  ZINC000572148596   -0.4700
     25 C25       -14.6247    0.0112   48.4122 C.2     1  ZINC000572148596    0.0400
     26 N26       -14.1327   -0.4084   47.2957 N.2     1  ZINC000572148596   -0.4500
     27 C27       -14.7064   -1.4581   46.7429 C.2     1  ZINC000572148596    0.0400
     28 C28       -15.7401   -1.9514   47.4317 C.2     1  ZINC000572148596   -0.2500
     29 S29       -15.9442   -0.9700   48.8807 S.3     1  ZINC000572148596    0.1400
     30 H30       -16.0486    2.1060   49.3811 H       1  ZINC000572148596    0.0800
     31 H31       -14.6834    3.2306   49.5812 H       1  ZINC000572148596    0.0700
     32 H32       -15.1188    2.6390   47.9599 H       1  ZINC000572148596    0.0800
     33 H33       -14.0851   -0.5086   55.0587 H       1  ZINC000572148596    0.1500
     34 H34       -12.5884   -1.1657   56.9062 H       1  ZINC000572148596    0.1500
     35 H35        -8.1723   -0.7432   55.7833 H       1  ZINC000572148596    0.0600
     36 H36        -8.8865    0.5750   56.7443 H       1  ZINC000572148596    0.1000
     37 H37        -9.4617   -0.9758   59.2823 H       1  ZINC000572148596    0.0700
     38 H38        -7.8724   -0.7528   60.0521 H       1  ZINC000572148596    0.0600
     39 H39        -8.6500    0.6065   59.2059 H       1  ZINC000572148596    0.0700
     40 H40        -7.8746   -4.8133   58.7646 H       1  ZINC000572148596    0.0700
     41 H41        -9.4367   -5.1222   57.9695 H       1  ZINC000572148596    0.0700
     42 H42        -7.9904   -4.7837   56.9887 H       1  ZINC000572148596    0.0600
     43 H43       -10.6682   -3.2111   56.8514 H       1  ZINC000572148596    0.1000
     44 H44        -9.2187   -2.9667   55.8462 H       1  ZINC000572148596    0.0600
     45 H45       -10.6030    0.1267   52.6253 H       1  ZINC000572148596    0.1700
     46 H46       -14.3693   -1.8846   45.8098 H       1  ZINC000572148596    0.1800
     47 H47       -16.3416   -2.8035   47.1515 H       1  ZINC000572148596    0.1800
@<TRIPOS>BOND
     1     1     2    1
     2     1    30    1
     3     1    31    1
     4     1    32    1
     5     2     3    1
     6     2     4    1
     7     2    25    1
     8     4    24    1
     9     4     5    2
    10     5     6    1
    11     6     7    1
    12     7     8    1
    13     7    24    2
    14     8    23   ar
    15     8     9   ar
    16     9    10   ar
    17     9    33    1
    18    10    11   ar
    19    10    34    1
    20    11    12    1
    21    11    22   ar
    22    12    21    1
    23    12    13    1
    24    13    14    1
    25    13    35    1
    26    13    36    1
    27    14    15    1
    28    14    16    1
    29    14    17    1
    30    16    37    1
    31    16    38    1
    32    16    39    1
    33    17    18    1
    34    18    19    1
    35    18    20    1
    36    18    21    1
    37    20    40    1
    38    20    41    1
    39    20    42    1
    40    21    43    1
    41    21    44    1
    42    22    23   ar
    43    23    45    1
    44    25    29    1
    45    25    26    2
    46    26    27    1
    47    27    28    2
    48    27    46    1
    49    28    29    1
    50    28    47    1
@<TRIPOS>SUBSTRUCTURE
     1 ZINC000572148596        1 TEMP              0 ****  ****    0 ROOT


##########                                Name:    ZINC001119787528
##########                DOCK_Rotatable_Bonds:                   6
##########                         Heavy_Atoms:                  27
##########                    Molecular_Weight:             362.434
##########                DOCK_Rotatable_Bonds:                   6
##########                       Formal_Charge:          -0.0199998
##########                     HBond_Acceptors:                   7
##########                        HBond_Donors:                   1
##########                         Heavy_Atoms:                  27
##########                          Grid_Score:          -30.134825
##########                     Grid_vdw_energy:          -29.684233
##########                      Grid_es_energy:           -0.450593
##########           Internal_energy_repulsive:           10.595307

@<TRIPOS>MOLECULE
ZINC001119787528
 49 52 1 0 0
SMALL
USER_CHARGES


@<TRIPOS>ATOM
      1 C1        -10.4395   -3.5757   57.7301 C.3     1  ZINC001119787528   -0.1700
      2 C2         -9.2078   -3.3574   56.8491 C.3     1  ZINC001119787528    0.1000
      3 N3         -8.3315   -2.3625   57.4727 N.pl3   1  ZINC001119787528   -0.4500
      4 C4         -7.5513   -2.5484   58.5623 C.2     1  ZINC001119787528    0.1800
      5 N5         -6.9170   -1.4343   58.8204 N.2     1  ZINC001119787528   -0.4800
      6 C6         -7.2655   -0.5143   57.9184 C.2     1  ZINC001119787528   -0.0200
      7 C7         -8.1441   -1.0775   57.0615 C.2     1  ZINC001119787528   -0.0100
      8 C8         -8.7734   -0.3737   55.8880 C.3     1  ZINC001119787528   -0.0600
      9 C9         -8.6238    1.1409   56.0815 C.3     1  ZINC001119787528    0.1400
     10 N10        -7.2505    1.4372   56.5157 N.am    1  ZINC001119787528   -0.6200
     11 C11        -6.4231    2.1650   55.7397 C.2     1  ZINC001119787528    0.7200
     12 O12        -6.8095    2.5854   54.6665 O.2     1  ZINC001119787528   -0.5600
     13 N13        -5.1675    2.4270   56.1537 N.am    1  ZINC001119787528   -0.6600
     14 C14        -4.3142    3.1777   55.3533 C.ar    1  ZINC001119787528    0.4200
     15 C15        -3.6607    4.2970   55.8693 C.ar    1  ZINC001119787528   -0.2500
     16 C16        -2.8220    5.0101   55.0337 C.ar    1  ZINC001119787528    0.1600
     17 N17        -2.6671    4.6110   53.7798 N.ar    1  ZINC001119787528   -0.5300
     18 C18        -3.2992    3.5487   53.3227 C.ar    1  ZINC001119787528    0.3500
     19 C19        -3.0911    3.1328   51.8892 C.3     1  ZINC001119787528   -0.0100
     20 C20        -4.4272    3.0093   51.2031 C.ar    1  ZINC001119787528   -0.0800
     21 C21        -4.9844    4.1061   50.5728 C.ar    1  ZINC001119787528   -0.1000
     22 C22        -6.2099    3.9929   49.9435 C.ar    1  ZINC001119787528   -0.1200
     23 C23        -6.8781    2.7828   49.9441 C.ar    1  ZINC001119787528   -0.1200
     24 C24        -6.3204    1.6857   50.5737 C.ar    1  ZINC001119787528   -0.1200
     25 C25        -5.0928    1.7978   51.1993 C.ar    1  ZINC001119787528   -0.1000
     26 N26        -4.1036    2.8372   54.0857 N.ar    1  ZINC001119787528   -0.5500
     27 C27        -6.7969    0.9180   57.8177 C.3     1  ZINC001119787528    0.2000
     28 H28       -11.0915   -4.3159   57.2662 H       1  ZINC001119787528    0.0800
     29 H29       -10.1259   -3.9318   58.7114 H       1  ZINC001119787528    0.0600
     30 H30       -10.9787   -2.6348   57.8404 H       1  ZINC001119787528    0.0600
     31 H31        -8.6686   -4.2983   56.7389 H       1  ZINC001119787528    0.0900
     32 H32        -9.5215   -3.0012   55.8679 H       1  ZINC001119787528    0.1000
     33 H33        -7.4666   -3.4655   59.1263 H       1  ZINC001119787528    0.2100
     34 H34        -8.2716   -0.6759   54.9688 H       1  ZINC001119787528    0.0800
     35 H35        -9.8308   -0.6320   55.8312 H       1  ZINC001119787528    0.0900
     36 H36        -8.8260    1.6503   55.1393 H       1  ZINC001119787528    0.1100
     37 H37        -9.3276    1.4826   56.8403 H       1  ZINC001119787528    0.0800
     38 H38        -4.8593    2.0916   57.0100 H       1  ZINC001119787528    0.4200
     39 H39        -3.8068    4.5989   56.8959 H       1  ZINC001119787528    0.1800
     40 H40        -2.2997    5.8824   55.3983 H       1  ZINC001119787528    0.1700
     41 H41        -2.4877    3.8825   51.3774 H       1  ZINC001119787528    0.1000
     42 H42        -2.5777    2.1718   51.8606 H       1  ZINC001119787528    0.1000
     43 H43        -4.4624    5.0516   50.5724 H       1  ZINC001119787528    0.1300
     44 H44        -6.6457    4.8500   49.4517 H       1  ZINC001119787528    0.1200
     45 H45        -7.8359    2.6945   49.4531 H       1  ZINC001119787528    0.1200
     46 H46        -6.8426    0.7403   50.5745 H       1  ZINC001119787528    0.1200
     47 H47        -4.6572    0.9407   51.6911 H       1  ZINC001119787528    0.1200
     48 H48        -7.2368    1.5043   58.6244 H       1  ZINC001119787528    0.0900
     49 H49        -5.7095    0.9622   57.8762 H       1  ZINC001119787528    0.0900
@<TRIPOS>BOND
     1     1     2    1
     2     1    28    1
     3     1    29    1
     4     1    30    1
     5     2     3    1
     6     2    31    1
     7     2    32    1
     8     3     7    1
     9     3     4    1
    10     4     5    2
    11     4    33    1
    12     5     6    1
    13     6    27    1
    14     6     7    2
    15     7     8    1
    16     8     9    1
    17     8    34    1
    18     8    35    1
    19     9    10    1
    20     9    36    1
    21     9    37    1
    22    10    11   am
    23    10    27    1
    24    11    12    2
    25    11    13   am
    26    13    14    1
    27    13    38    1
    28    14    26   ar
    29    14    15   ar
    30    15    16   ar
    31    15    39    1
    32    16    17   ar
    33    16    40    1
    34    17    18   ar
    35    18    19    1
    36    18    26   ar
    37    19    20    1
    38    19    41    1
    39    19    42    1
    40    20    25   ar
    41    20    21   ar
    42    21    22   ar
    43    21    43    1
    44    22    23   ar
    45    22    44    1
    46    23    24   ar
    47    23    45    1
    48    24    25   ar
    49    24    46    1
    50    25    47    1
    51    27    48    1
    52    27    49    1
@<TRIPOS>SUBSTRUCTURE
     1 ZINC001119787528        1 TEMP              0 ****  ****    0 ROOT


##########                                Name:    ZINC000047262406
##########                DOCK_Rotatable_Bonds:                   6
##########                         Heavy_Atoms:                  28
##########                    Molecular_Weight:             417.919
##########                DOCK_Rotatable_Bonds:                   6
##########                       Formal_Charge:          -0.0100002
##########                     HBond_Acceptors:                   9
##########                        HBond_Donors:                   1
##########                         Heavy_Atoms:                  28
##########                          Grid_Score:          -30.127602
##########                     Grid_vdw_energy:          -29.033730
##########                      Grid_es_energy:           -1.093872
##########           Internal_energy_repulsive:           13.513185

@<TRIPOS>MOLECULE
ZINC000047262406
 48 51 1 0 0
SMALL
USER_CHARGES


@<TRIPOS>ATOM
      1 C1         -5.2766    2.4577   56.9236 C.3     1  ZINC000047262406   -0.1500
      2 C2         -6.2570    2.9570   55.8603 C.3     1  ZINC000047262406    0.1800
      3 H3         -6.3409    4.0419   55.9243 H       1  ZINC000047262406    0.0800
      4 C4         -7.6094    2.3340   56.0920 C.2     1  ZINC000047262406    0.1700
      5 N5         -8.7461    2.9676   56.1619 N.2     1  ZINC000047262406   -0.2500
      6 N6         -9.6971    2.1261   56.3684 N.2     1  ZINC000047262406   -0.2700
      7 C7         -9.1942    0.9127   56.4381 C.2     1  ZINC000047262406    0.2400
      8 C8         -9.9448   -0.3317   56.6632 C.2     1  ZINC000047262406   -0.1500
      9 C9        -11.2949   -0.4205   56.8147 C.2     1  ZINC000047262406   -0.0600
     10 C10       -11.7631   -1.7004   57.0144 C.2     1  ZINC000047262406   -0.1400
     11 C11       -10.8256   -2.6535   57.0290 C.2     1  ZINC000047262406   -0.1900
     12 S12        -9.2397   -1.9395   56.7714 S.3     1  ZINC000047262406    0.1700
     13 O13        -7.8617    1.0228   56.2582 O.3     1  ZINC000047262406   -0.2200
     14 N14        -5.7668    2.5815   54.5274 N.3     1  ZINC000047262406   -0.5200
     15 C15        -4.5775    3.3628   54.1647 C.3     1  ZINC000047262406    0.0500
     16 C16        -4.0106    2.8464   52.8403 C.3     1  ZINC000047262406   -0.1000
     17 C17        -5.0787    2.9719   51.7501 C.3     1  ZINC000047262406   -0.1100
     18 C18        -4.5468    2.4096   50.4571 C.2     1  ZINC000047262406    0.5100
     19 O19        -5.2419    1.6811   49.7812 O.2     1  ZINC000047262406   -0.4600
     20 N20        -3.2986    2.7166   50.0517 N.am    1  ZINC000047262406   -0.6600
     21 C21        -2.8064    2.1963   48.8551 C.ar    1  ZINC000047262406    0.3600
     22 C22        -1.7186    1.3315   48.8765 C.ar    1  ZINC000047262406   -0.2000
     23 C23        -1.2399    0.8217   47.6822 C.ar    1  ZINC000047262406   -0.0400
     24 C24        -1.8692    1.1968   46.5023 C.ar    1  ZINC000047262406   -0.1200
     25 Cl25       -1.3094    0.5860   44.9767 Cl      1  ZINC000047262406   -0.0500
     26 C26        -2.9465    2.0613   46.5559 C.ar    1  ZINC000047262406    0.1500
     27 N27        -3.3829    2.5267   47.7103 N.ar    1  ZINC000047262406   -0.4600
     28 C28        -6.3243    2.1890   52.1746 C.3     1  ZINC000047262406   -0.1100
     29 C29        -6.8240    2.7244   53.5183 C.3     1  ZINC000047262406    0.0600
     30 H30        -4.2983    2.9082   56.7559 H       1  ZINC000047262406    0.0800
     31 H31        -5.6403    2.7363   57.9126 H       1  ZINC000047262406    0.0700
     32 H32        -5.1927    1.3728   56.8596 H       1  ZINC000047262406    0.0800
     33 H33       -11.9449    0.4413   56.7812 H       1  ZINC000047262406    0.1600
     34 H34       -12.8122   -1.9183   57.1501 H       1  ZINC000047262406    0.1600
     35 H35       -11.0149   -3.7070   57.1733 H       1  ZINC000047262406    0.1800
     36 H36        -4.8512    4.4125   54.0579 H       1  ZINC000047262406    0.0400
     37 H37        -3.8243    3.2617   54.9461 H       1  ZINC000047262406    0.0900
     38 H38        -3.1371    3.4367   52.5635 H       1  ZINC000047262406    0.0800
     39 H39        -3.7239    1.8006   52.9502 H       1  ZINC000047262406    0.0900
     40 H40        -5.3367    4.0218   51.6121 H       1  ZINC000047262406    0.1000
     41 H41        -2.7426    3.2992   50.5924 H       1  ZINC000047262406    0.4200
     42 H42        -1.2529    1.0611   49.8127 H       1  ZINC000047262406    0.1500
     43 H43        -0.3960    0.1479   47.6680 H       1  ZINC000047262406    0.1500
     44 H44        -3.4392    2.3566   45.6413 H       1  ZINC000047262406    0.1700
     45 H45        -7.1037    2.3096   51.4223 H       1  ZINC000047262406    0.0700
     46 H46        -6.0739    1.1328   52.2741 H       1  ZINC000047262406    0.0800
     47 H47        -7.7025    2.1596   53.8302 H       1  ZINC000047262406    0.0700
     48 H48        -7.0872    3.7771   53.4147 H       1  ZINC000047262406    0.0400
@<TRIPOS>BOND
     1     1     2    1
     2     1    30    1
     3     1    31    1
     4     1    32    1
     5     2     3    1
     6     2     4    1
     7     2    14    1
     8     4    13    1
     9     4     5    2
    10     5     6    1
    11     6     7    2
    12     7     8    1
    13     7    13    1
    14     8    12    1
    15     8     9    2
    16     9    10    1
    17     9    33    1
    18    10    11    2
    19    10    34    1
    20    11    12    1
    21    11    35    1
    22    14    29    1
    23    14    15    1
    24    15    16    1
    25    15    36    1
    26    15    37    1
    27    16    17    1
    28    16    38    1
    29    16    39    1
    30    17    18    1
    31    17    28    1
    32    17    40    1
    33    18    19    2
    34    18    20   am
    35    20    21    1
    36    20    41    1
    37    21    27   ar
    38    21    22   ar
    39    22    23   ar
    40    22    42    1
    41    23    24   ar
    42    23    43    1
    43    24    25    1
    44    24    26   ar
    45    26    27   ar
    46    26    44    1
    47    28    29    1
    48    28    45    1
    49    28    46    1
    50    29    47    1
    51    29    48    1
@<TRIPOS>SUBSTRUCTURE
     1 ZINC000047262406        1 TEMP              0 ****  ****    0 ROOT


##########                                Name:    ZINC000440379747
##########                DOCK_Rotatable_Bonds:                   8
##########                         Heavy_Atoms:                  27
##########                    Molecular_Weight:             394.452
##########                DOCK_Rotatable_Bonds:                   8
##########                       Formal_Charge:           0.0199995
##########                     HBond_Acceptors:                  10
##########                        HBond_Donors:                   3
##########                         Heavy_Atoms:                  27
##########                          Grid_Score:          -30.124332
##########                     Grid_vdw_energy:          -28.491947
##########                      Grid_es_energy:           -1.632385
##########           Internal_energy_repulsive:           16.426256

@<TRIPOS>MOLECULE
ZINC000440379747
 49 51 1 0 0
SMALL
USER_CHARGES


@<TRIPOS>ATOM
      1 C1         -3.1021    2.8483   51.0573 C.3     1  ZINC000440379747   -0.1800
      2 C2         -4.1027    2.6766   52.1710 C.2     1  ZINC000440379747    0.5200
      3 O3         -3.8318    3.0505   53.2927 O.2     1  ZINC000440379747   -0.5200
      4 N4         -5.2986    2.1075   51.9208 N.am    1  ZINC000440379747   -0.5500
      5 C5         -5.7385    1.6180   50.6116 C.3     1  ZINC000440379747    0.1100
      6 C6         -7.1541    1.0648   50.8424 C.3     1  ZINC000440379747   -0.0900
      7 C7         -7.4167    1.2909   52.3144 C.ar    1  ZINC000440379747   -0.1100
      8 C8         -8.5194    0.9973   53.0914 C.ar    1  ZINC000440379747   -0.0700
      9 C9         -8.5202    1.3083   54.4454 C.ar    1  ZINC000440379747    0.1200
     10 N10        -9.6361    1.0112   55.2339 N.am    1  ZINC000440379747   -0.6400
     11 C11        -9.6996   -0.1601   55.8977 C.2     1  ZINC000440379747    0.5100
     12 O12        -8.7881   -0.9570   55.8108 O.2     1  ZINC000440379747   -0.4900
     13 C13       -10.8913   -0.4774   56.7398 C.2     1  ZINC000440379747    0.5200
     14 O14       -12.0033   -0.4446   56.2547 O.2     1  ZINC000440379747   -0.5100
     15 N15       -10.7319   -0.8001   58.0387 N.am    1  ZINC000440379747   -0.5800
     16 C16        -9.4446   -0.8775   58.7531 C.3     1  ZINC000440379747    0.1000
     17 C17        -9.8046   -0.6579   60.2436 C.3     1  ZINC000440379747   -0.1300
     18 C18       -11.1608   -1.4041   60.3499 C.3     1  ZINC000440379747   -0.1600
     19 C19       -11.8135   -1.1270   58.9792 C.3     1  ZINC000440379747    0.1500
     20 H20       -12.5062   -0.2893   59.0610 H       1  ZINC000440379747    0.1000
     21 C21       -12.5589   -2.3730   58.4965 C.3     1  ZINC000440379747   -0.6500
     22 S22       -14.0551   -2.6073   59.4951 S.o2    1  ZINC000440379747    2.6200
     23 N23       -14.9452   -3.7197   58.6509 N.am    1  ZINC000440379747   -1.2500
     24 O24       -13.7419   -3.2628   60.7163 O.2     1  ZINC000440379747   -0.9500
     25 O25       -14.8548   -1.4329   59.4781 O.2     1  ZINC000440379747   -0.9500
     26 C26        -7.4067    1.9155   55.0121 C.ar    1  ZINC000440379747   -0.1000
     27 C27        -6.3073    2.2076   54.2348 C.ar    1  ZINC000440379747   -0.1400
     28 C28        -6.2998    1.8918   52.8747 C.ar    1  ZINC000440379747    0.1400
     29 H29        -2.2020    3.3230   51.4475 H       1  ZINC000440379747    0.1000
     30 H30        -2.8480    1.8725   50.6435 H       1  ZINC000440379747    0.1000
     31 H31        -3.5328    3.4736   50.2752 H       1  ZINC000440379747    0.1000
     32 H32        -5.7649    2.4360   49.8916 H       1  ZINC000440379747    0.0900
     33 H33        -5.0757    0.8266   50.2616 H       1  ZINC000440379747    0.0900
     34 H34        -7.8788    1.6113   50.2387 H       1  ZINC000440379747    0.0900
     35 H35        -7.1890    0.0007   50.6091 H       1  ZINC000440379747    0.1000
     36 H36        -9.3827    0.5255   52.6460 H       1  ZINC000440379747    0.1400
     37 H37       -10.3645    1.6480   55.3031 H       1  ZINC000440379747    0.4200
     38 H38        -8.9914   -1.8588   58.6128 H       1  ZINC000440379747    0.0800
     39 H39        -8.7706   -0.0943   58.4061 H       1  ZINC000440379747    0.1000
     40 H40        -9.0579   -1.1099   60.8966 H       1  ZINC000440379747    0.1000
     41 H41        -9.9239    0.4028   60.4647 H       1  ZINC000440379747    0.0800
     42 H42       -11.0028   -2.4724   60.4969 H       1  ZINC000440379747    0.1000
     43 H43       -11.7676   -0.9885   61.1544 H       1  ZINC000440379747    0.1000
     44 H44       -12.8365   -2.2476   57.4499 H       1  ZINC000440379747    0.1500
     45 H45       -11.9133   -3.2451   58.5992 H       1  ZINC000440379747    0.1400
     46 H46       -14.5795   -4.6008   58.4748 H       1  ZINC000440379747    0.4100
     47 H47       -15.8322   -3.4903   58.3325 H       1  ZINC000440379747    0.4200
     48 H48        -7.4030    2.1594   56.0641 H       1  ZINC000440379747    0.1400
     49 H49        -5.4447    2.6801   54.6809 H       1  ZINC000440379747    0.1500
@<TRIPOS>BOND
     1     1     2    1
     2     1    29    1
     3     1    30    1
     4     1    31    1
     5     2     3    2
     6     2     4   am
     7     4    28    1
     8     4     5    1
     9     5     6    1
    10     5    32    1
    11     5    33    1
    12     6     7    1
    13     6    34    1
    14     6    35    1
    15     7    28   ar
    16     7     8   ar
    17     8     9   ar
    18     8    36    1
    19     9    10    1
    20     9    26   ar
    21    10    11   am
    22    10    37    1
    23    11    12    2
    24    11    13    1
    25    13    14    2
    26    13    15   am
    27    15    19    1
    28    15    16    1
    29    16    17    1
    30    16    38    1
    31    16    39    1
    32    17    18    1
    33    17    40    1
    34    17    41    1
    35    18    19    1
    36    18    42    1
    37    18    43    1
    38    19    20    1
    39    19    21    1
    40    21    22    1
    41    21    44    1
    42    21    45    1
    43    22    23   am
    44    22    24    2
    45    22    25    2
    46    23    46    1
    47    23    47    1
    48    26    27   ar
    49    26    48    1
    50    27    28   ar
    51    27    49    1
@<TRIPOS>SUBSTRUCTURE
     1 ZINC000440379747        1 TEMP              0 ****  ****    0 ROOT


##########                                Name:     oleObject15.pdb
##########                DOCK_Rotatable_Bonds:                   9
##########                         Heavy_Atoms:                  29
##########                    Molecular_Weight:             395.545
##########                DOCK_Rotatable_Bonds:                   9
##########                       Formal_Charge:         0.000700183
##########                     HBond_Acceptors:                   5
##########                        HBond_Donors:                   1
##########                         Heavy_Atoms:                  29
##########                          Grid_Score:          -30.111052
##########                     Grid_vdw_energy:          -29.671253
##########                      Grid_es_energy:           -0.439798
##########           Internal_energy_repulsive:           19.335737

@<TRIPOS>MOLECULE
oleObject15.pdb
 62 64 1 0 0
SMALL
NO_CHARGES


@<TRIPOS>ATOM
      1 O          -8.9140    4.8564   48.9243 O.3     1  UNL        -0.3745
      2 C          -8.7866    3.7359   49.8286 C.3     1  UNL         0.0600
      3 C          -7.5663    2.8902   49.3965 C.3     1  UNL         0.0217
      4 N          -6.4248    2.9283   50.3404 N.4     1  UNL        -0.3010
      5 C          -5.5416    1.7406   50.2912 C.3     1  UNL        -0.0010
      6 C          -4.4553    1.7869   51.3877 C.3     1  UNL        -0.0289
      7 C          -3.6301    3.0959   51.3615 C.3     1  UNL         0.0382
      8 C          -4.5783    4.3210   51.3246 C.3     1  UNL        -0.0289
      9 C          -5.6878    4.2067   50.2531 C.3     1  UNL        -0.0010
     10 C          -2.6086    3.1058   50.1972 C.2     1  UNL         0.2156
     11 O          -2.8263    3.6953   49.1542 O.2     1  UNL        -0.2774
     12 N          -1.3842    2.4672   50.3472 N.am    1  UNL        -0.3025
     13 C          -0.2925    2.3694   49.3602 C.3     1  UNL         0.0900
     14 C          -0.7611    1.8437   48.0046 C.ar    1  UNL        -0.0217
     15 C          -0.8171    0.4606   47.7389 C.ar    1  UNL        -0.0568
     16 C          -1.2385   -0.0054   46.4828 C.ar    1  UNL        -0.0619
     17 C          -1.6105    0.9069   45.4832 C.ar    1  UNL        -0.0622
     18 C          -1.5633    2.2857   45.7419 C.ar    1  UNL        -0.0619
     19 C          -1.1421    2.7515   46.9982 C.ar    1  UNL        -0.0568
     20 C           0.4431    3.6966   49.1996 C.ar    1  UNL         0.0652
     21 C           0.1317    4.8180   49.9961 C.ar    1  UNL        -0.0383
     22 C           0.8382    6.0145   49.7948 C.ar    1  UNL        -0.0588
     23 C           1.8307    6.0490   48.8032 C.ar    1  UNL        -0.0438
     24 C           2.0760    4.8860   48.0532 C.ar    1  UNL         0.0272
     25 N           1.3984    3.7361   48.2450 N.ar    1  UNL        -0.2590
     26 C         -10.0760    5.7152   49.0091 C.3     1  UNL         0.0599
     27 C         -11.3552    4.8887   48.7247 C.3     1  UNL        -0.0364
     28 C         -10.0906    6.2261   50.4675 C.3     1  UNL        -0.0364
     29 C          -9.9297    6.9055   48.0283 C.3     1  UNL        -0.0364
     30 H          -9.6840    3.1071   49.7861 H       1  UNL         0.0581
     31 H          -8.6539    4.0698   50.8634 H       1  UNL         0.0581
     32 H          -7.2358    3.2604   48.4176 H       1  UNL         0.0455
     33 H          -7.8923    1.8514   49.2590 H       1  UNL         0.0455
     34 H          -5.0626    1.6747   49.3059 H       1  UNL         0.0431
     35 H          -6.1236    0.8238   50.4414 H       1  UNL         0.0431
     36 H          -3.7950    0.9176   51.2884 H       1  UNL         0.0288
     37 H          -4.9457    1.6969   52.3658 H       1  UNL         0.0288
     38 H          -3.0912    3.1611   52.3103 H       1  UNL         0.0402
     39 H          -4.0000    5.2401   51.1665 H       1  UNL         0.0288
     40 H          -5.0602    4.4197   52.3060 H       1  UNL         0.0288
     41 H          -5.2427    4.3074   49.2553 H       1  UNL         0.0431
     42 H          -6.3839    5.0449   50.3853 H       1  UNL         0.0431
     43 H          -1.1906    2.1082   51.2733 H       1  UNL         0.1504
     44 H           0.4376    1.6581   49.7670 H       1  UNL         0.0624
     45 H          -0.5247   -0.2558   48.5010 H       1  UNL         0.0626
     46 H          -1.2743   -1.0728   46.2843 H       1  UNL         0.0623
     47 H          -1.9359    0.5466   44.5115 H       1  UNL         0.0623
     48 H          -1.8533    2.9931   44.9702 H       1  UNL         0.0623
     49 H          -1.1103    3.8206   47.1887 H       1  UNL         0.0626
     50 H          -0.6423    4.7641   50.7556 H       1  UNL         0.0643
     51 H           0.6206    6.8946   50.3932 H       1  UNL         0.0624
     52 H           2.3982    6.9563   48.6181 H       1  UNL         0.0639
     53 H           2.8378    4.8745   47.2746 H       1  UNL         0.0840
     54 H         -11.3753    3.9782   49.3374 H       1  UNL         0.0260
     55 H         -11.4200    4.5942   47.6703 H       1  UNL         0.0260
     56 H         -12.2541    5.4731   48.9580 H       1  UNL         0.0260
     57 H         -10.1605    5.3888   51.1739 H       1  UNL         0.0260
     58 H         -10.9456    6.8910   50.6440 H       1  UNL         0.0260
     59 H          -9.1737    6.7849   50.6951 H       1  UNL         0.0260
     60 H          -9.9958    6.5768   46.9838 H       1  UNL         0.0260
     61 H          -8.9659    7.4114   48.1691 H       1  UNL         0.0260
     62 H         -10.7255    7.6430   48.1925 H       1  UNL         0.0260
@<TRIPOS>BOND
     1     1     2    1
     2     1    26    1
     3     2     3    1
     4     2    30    1
     5     2    31    1
     6     3     4    1
     7     3    32    1
     8     3    33    1
     9     4     5    1
    10     4     9    1
    11     5     6    1
    12     5    34    1
    13     5    35    1
    14     6     7    1
    15     6    36    1
    16     6    37    1
    17     7     8    1
    18     7    10    1
    19     7    38    1
    20     8     9    1
    21     8    39    1
    22     8    40    1
    23     9    41    1
    24     9    42    1
    25    10    11    2
    26    10    12   am
    27    12    13    1
    28    12    43    1
    29    13    14    1
    30    13    20    1
    31    13    44    1
    32    14    15   ar
    33    14    19   ar
    34    15    16   ar
    35    15    45    1
    36    16    17   ar
    37    16    46    1
    38    17    18   ar
    39    17    47    1
    40    18    19   ar
    41    18    48    1
    42    19    49    1
    43    20    21   ar
    44    20    25   ar
    45    21    22   ar
    46    21    50    1
    47    22    23   ar
    48    22    51    1
    49    23    24   ar
    50    23    52    1
    51    24    25   ar
    52    24    53    1
    53    26    27    1
    54    26    28    1
    55    26    29    1
    56    27    54    1
    57    27    55    1
    58    27    56    1
    59    28    57    1
    60    28    58    1
    61    28    59    1
    62    29    60    1
    63    29    61    1
    64    29    62    1
@<TRIPOS>SUBSTRUCTURE
     1 UNL         1 TEMP              0 ****  ****    0 ROOT


##########                                Name:    ZINC001076281847
##########                DOCK_Rotatable_Bonds:                   4
##########                         Heavy_Atoms:                  24
##########                    Molecular_Weight:             362.883
##########                DOCK_Rotatable_Bonds:                   4
##########                       Formal_Charge:         -0.00999959
##########                     HBond_Acceptors:                   7
##########                        HBond_Donors:                   0
##########                         Heavy_Atoms:                  24
##########                          Grid_Score:          -30.108467
##########                     Grid_vdw_energy:          -27.852242
##########                      Grid_es_energy:           -2.256225
##########           Internal_energy_repulsive:           11.447800

@<TRIPOS>MOLECULE
ZINC001076281847
 43 46 1 0 0
SMALL
USER_CHARGES


@<TRIPOS>ATOM
      1 C1         -3.5425    3.0777   53.2628 C.3     1  ZINC001076281847   -0.0900
      2 C2         -4.7614    3.0618   54.1489 C.2     1  ZINC001076281847    0.1400
      3 N3         -5.9239    3.4516   53.7147 N.2     1  ZINC001076281847   -0.4600
      4 S4         -7.0197    3.2825   54.9982 S.3     1  ZINC001076281847    0.2500
      5 C5         -5.8702    2.6760   56.1255 C.2     1  ZINC001076281847   -0.2100
      6 C6         -6.1198    2.2764   57.5570 C.3     1  ZINC001076281847    0.1200
      7 N7         -7.4996    2.6181   57.9273 N.3     1  ZINC001076281847   -0.5000
      8 C8         -7.7131    2.4554   59.3738 C.3     1  ZINC001076281847    0.0300
      9 C9         -9.1209    1.8557   59.5513 C.3     1  ZINC001076281847   -0.1000
     10 H10        -9.8872    2.6029   59.7578 H       1  ZINC001076281847    0.1200
     11 C11        -9.0414    0.7396   60.6259 C.3     1  ZINC001076281847   -0.1300
     12 C12        -8.3283   -0.3953   59.8503 C.3     1  ZINC001076281847    0.1000
     13 N13        -8.8689   -0.3138   58.4815 N.am    1  ZINC001076281847   -0.6000
     14 C14        -8.9196   -1.3288   57.5964 C.2     1  ZINC001076281847    0.5700
     15 O15        -9.3887   -1.1476   56.4901 O.2     1  ZINC001076281847   -0.4900
     16 C16        -8.4035   -2.6650   57.9718 C.ar    1  ZINC001076281847   -0.0800
     17 C17        -7.0697   -2.8390   58.3536 C.ar    1  ZINC001076281847   -0.1800
     18 C18        -6.6303   -4.1030   58.6964 C.ar    1  ZINC001076281847    0.1000
     19 N19        -7.4486   -5.1359   58.6673 N.ar    1  ZINC001076281847   -0.4500
     20 C20        -8.7127   -5.0175   58.3138 C.ar    1  ZINC001076281847    0.1100
     21 C21        -9.2386   -3.7882   57.9601 C.ar    1  ZINC001076281847   -0.0500
     22 Cl22      -10.9053   -3.6427   57.4966 Cl      1  ZINC001076281847   -0.0100
     23 C23        -9.3529    1.0732   58.2306 C.3     1  ZINC001076281847    0.1000
     24 H24       -10.4011    1.0787   57.9310 H       1  ZINC001076281847    0.1100
     25 C25        -8.4637    1.7804   57.1985 C.3     1  ZINC001076281847    0.0200
     26 C26        -4.6976    2.6282   55.4554 C.2     1  ZINC001076281847   -0.1800
     27 H27        -3.4134    2.0970   52.8049 H       1  ZINC001076281847    0.0700
     28 H28        -3.6698    3.8288   52.4832 H       1  ZINC001076281847    0.0800
     29 H29        -2.6627    3.3189   53.8593 H       1  ZINC001076281847    0.0900
     30 H30        -5.9697    1.2023   57.6658 H       1  ZINC001076281847    0.1000
     31 H31        -5.4264    2.8080   58.2087 H       1  ZINC001076281847    0.1000
     32 H32        -6.9650    1.7789   59.7872 H       1  ZINC001076281847    0.0600
     33 H33        -7.6553    3.4240   59.8704 H       1  ZINC001076281847    0.0900
     34 H34        -8.4461    1.0623   61.4800 H       1  ZINC001076281847    0.0900
     35 H35       -10.0378    0.4303   60.9414 H       1  ZINC001076281847    0.0800
     36 H36        -7.2508   -0.2310   59.8431 H       1  ZINC001076281847    0.0800
     37 H37        -8.5624   -1.3631   60.2938 H       1  ZINC001076281847    0.0800
     38 H38        -6.3928   -1.9978   58.3797 H       1  ZINC001076281847    0.1800
     39 H39        -5.6016   -4.2469   58.9922 H       1  ZINC001076281847    0.1700
     40 H40        -9.3474   -5.8913   58.3043 H       1  ZINC001076281847    0.1700
     41 H41        -9.0796    2.3901   56.5374 H       1  ZINC001076281847    0.1000
     42 H42        -7.9171    1.0402   56.6141 H       1  ZINC001076281847    0.0700
     43 H43        -3.7807    2.2837   55.9104 H       1  ZINC001076281847    0.1400
@<TRIPOS>BOND
     1     1     2    1
     2     1    27    1
     3     1    28    1
     4     1    29    1
     5     2    26    1
     6     2     3    2
     7     3     4    1
     8     4     5    1
     9     5     6    1
    10     5    26    2
    11     6     7    1
    12     6    30    1
    13     6    31    1
    14     7    25    1
    15     7     8    1
    16     8     9    1
    17     8    32    1
    18     8    33    1
    19     9    10    1
    20     9    23    1
    21     9    11    1
    22    11    12    1
    23    11    34    1
    24    11    35    1
    25    12    13    1
    26    12    36    1
    27    12    37    1
    28    13    14   am
    29    13    23    1
    30    14    15    2
    31    14    16    1
    32    16    21   ar
    33    16    17   ar
    34    17    18   ar
    35    17    38    1
    36    18    19   ar
    37    18    39    1
    38    19    20   ar
    39    20    21   ar
    40    20    40    1
    41    21    22    1
    42    23    24    1
    43    23    25    1
    44    25    41    1
    45    25    42    1
    46    26    43    1
@<TRIPOS>SUBSTRUCTURE
     1 ZINC001076281847        1 TEMP              0 ****  ****    0 ROOT


##########                                Name:    ZINC000052999724
##########                DOCK_Rotatable_Bonds:                   6
##########                         Heavy_Atoms:                  25
##########                    Molecular_Weight:             398.571
##########                DOCK_Rotatable_Bonds:                   6
##########                       Formal_Charge:           0.0399994
##########                     HBond_Acceptors:                   8
##########                        HBond_Donors:                   1
##########                         Heavy_Atoms:                  25
##########                          Grid_Score:          -30.097551
##########                     Grid_vdw_energy:          -29.238827
##########                      Grid_es_energy:           -0.858725
##########           Internal_energy_repulsive:           13.352682

@<TRIPOS>MOLECULE
ZINC000052999724
 47 49 1 0 0
SMALL
USER_CHARGES


@<TRIPOS>ATOM
      1 C1         -1.4537    0.3032   45.9735 C.3     1  ZINC000052999724   -0.1400
      2 C2         -1.5719    0.1225   47.4882 C.3     1  ZINC000052999724   -0.0400
      3 C3         -0.8299   -1.1473   47.9097 C.3     1  ZINC000052999724   -0.1400
      4 C4         -0.9657    1.3133   48.1850 C.2     1  ZINC000052999724   -0.0400
      5 C5         -1.7034    2.3582   48.6659 C.2     1  ZINC000052999724   -0.2600
      6 C6         -3.1618    2.4796   48.5812 C.2     1  ZINC000052999724    0.6000
      7 O7         -3.6807    2.8765   47.5543 O.2     1  ZINC000052999724   -0.5200
      8 N8         -3.9279    2.1517   49.6404 N.am    1  ZINC000052999724   -0.6000
      9 C9         -3.3158    1.6769   50.8888 C.3     1  ZINC000052999724    0.1100
     10 C10        -3.8269    2.5386   52.0476 C.3     1  ZINC000052999724   -0.1400
     11 C11        -5.3573    2.5237   52.0526 C.3     1  ZINC000052999724    0.1500
     12 N12        -5.8494    3.3201   53.1795 N.am    1  ZINC000052999724   -1.1100
     13 S13        -6.4967    2.5675   54.5050 S.o2    1  ZINC000052999724    2.7200
     14 O14        -5.5289    1.6239   54.9433 O.2     1  ZINC000052999724   -0.9500
     15 O15        -7.0123    3.5965   55.3387 O.2     1  ZINC000052999724   -0.9400
     16 C16        -7.8847    1.6351   53.9494 C.2     1  ZINC000052999724   -0.8000
     17 C17        -8.6839    1.9750   52.9370 C.2     1  ZINC000052999724    0.0100
     18 C18        -9.7126    1.0847   52.6817 C.2     1  ZINC000052999724   -0.1600
     19 C19        -9.7489    0.0218   53.4868 C.2     1  ZINC000052999724   -0.1700
     20 S20        -8.4237    0.1100   54.6400 S.3     1  ZINC000052999724    0.2100
     21 C21        -5.8793    3.1175   50.7422 C.3     1  ZINC000052999724   -0.1500
     22 C22        -5.3909    2.2681   49.5707 C.3     1  ZINC000052999724    0.1100
     23 S23        -0.6231    3.5334   49.4031 S.3     1  ZINC000052999724    0.2100
     24 C24         0.7423    2.5789   49.0349 C.2     1  ZINC000052999724   -0.2400
     25 C25         0.3839    1.4538   48.4053 C.2     1  ZINC000052999724   -0.1300
     26 H26        -1.9824    1.2078   45.6732 H       1  ZINC000052999724    0.0600
     27 H27        -0.4024    0.3886   45.6988 H       1  ZINC000052999724    0.0600
     28 H28        -1.8922   -0.5581   45.4696 H       1  ZINC000052999724    0.0600
     29 H29        -2.6232    0.0370   47.7630 H       1  ZINC000052999724    0.0800
     30 H30         0.2215   -1.0620   47.6350 H       1  ZINC000052999724    0.0600
     31 H31        -0.9141   -1.2761   48.9889 H       1  ZINC000052999724    0.0600
     32 H32        -1.2683   -2.0087   47.4058 H       1  ZINC000052999724    0.0600
     33 H33        -3.5914    0.6361   51.0581 H       1  ZINC000052999724    0.0800
     34 H34        -2.2313    1.7633   50.8199 H       1  ZINC000052999724    0.0900
     35 H35        -3.4561    2.1373   52.9907 H       1  ZINC000052999724    0.0900
     36 H36        -3.4736    3.5622   51.9232 H       1  ZINC000052999724    0.0800
     37 H37        -5.7101    1.4972   52.1518 H       1  ZINC000052999724    0.0900
     38 H38        -5.7960    4.2881   53.1492 H       1  ZINC000052999724    0.4200
     39 H39        -8.5395    2.8766   52.3603 H       1  ZINC000052999724    0.1600
     40 H40       -10.4317    1.2392   51.8908 H       1  ZINC000052999724    0.1500
     41 H41       -10.4782   -0.7732   53.4359 H       1  ZINC000052999724    0.1800
     42 H42        -6.9691    3.1280   50.7562 H       1  ZINC000052999724    0.1000
     43 H43        -5.5066    4.1357   50.6302 H       1  ZINC000052999724    0.0800
     44 H44        -5.6768    2.7420   48.6316 H       1  ZINC000052999724    0.1000
     45 H45        -5.8340    1.2740   49.6304 H       1  ZINC000052999724    0.0800
     46 H46         1.7596    2.8454   49.2808 H       1  ZINC000052999724    0.1700
     47 H47         1.1032    0.7141   48.0863 H       1  ZINC000052999724    0.1400
@<TRIPOS>BOND
     1     1     2    1
     2     1    26    1
     3     1    27    1
     4     1    28    1
     5     2     3    1
     6     2     4    1
     7     2    29    1
     8     3    30    1
     9     3    31    1
    10     3    32    1
    11     4    25    1
    12     4     5    2
    13     5     6    1
    14     5    23    1
    15     6     7    2
    16     6     8   am
    17     8    22    1
    18     8     9    1
    19     9    10    1
    20     9    33    1
    21     9    34    1
    22    10    11    1
    23    10    35    1
    24    10    36    1
    25    11    12    1
    26    11    21    1
    27    11    37    1
    28    12    13   am
    29    12    38    1
    30    13    14    2
    31    13    15    2
    32    13    16    1
    33    16    20    1
    34    16    17    2
    35    17    18    1
    36    17    39    1
    37    18    19    2
    38    18    40    1
    39    19    20    1
    40    19    41    1
    41    21    22    1
    42    21    42    1
    43    21    43    1
    44    22    44    1
    45    22    45    1
    46    23    24    1
    47    24    25    2
    48    24    46    1
    49    25    47    1
@<TRIPOS>SUBSTRUCTURE
     1 ZINC000052999724        1 TEMP              0 ****  ****    0 ROOT


##########                                Name:    ZINC000508571532
##########                DOCK_Rotatable_Bonds:                   9
##########                         Heavy_Atoms:                  30
##########                    Molecular_Weight:             422.407
##########                DOCK_Rotatable_Bonds:                   9
##########                       Formal_Charge:           0.0100001
##########                     HBond_Acceptors:                  10
##########                        HBond_Donors:                   0
##########                         Heavy_Atoms:                  30
##########                          Grid_Score:          -30.074259
##########                     Grid_vdw_energy:          -27.828724
##########                      Grid_es_energy:           -2.245535
##########           Internal_energy_repulsive:           23.368538

@<TRIPOS>MOLECULE
ZINC000508571532
 51 53 1 0 0
SMALL
USER_CHARGES


@<TRIPOS>ATOM
      1 C1          0.8283    7.2011   44.2095 C.3     1  ZINC000508571532    0.0300
      2 O2          0.9107    6.6232   45.5138 O.3     1  ZINC000508571532   -0.3200
      3 C3          0.6751    5.2876   45.6134 C.ar    1  ZINC000508571532    0.0900
      4 C4          0.3779    4.5494   44.4776 C.ar    1  ZINC000508571532   -0.1700
      5 C5          0.1384    3.1927   44.5786 C.ar    1  ZINC000508571532   -0.1100
      6 C6          0.1959    2.5687   45.8160 C.ar    1  ZINC000508571532    0.0900
      7 O7         -0.0403    1.2333   45.9156 O.3     1  ZINC000508571532   -0.3100
      8 C8         -0.3383    0.7223   47.2164 C.3     1  ZINC000508571532    0.1500
      9 C9         -1.6144    1.3455   47.7207 C.2     1  ZINC000508571532    0.1700
     10 N10        -2.6551    1.6622   47.0036 N.2     1  ZINC000508571532   -0.2500
     11 N11        -3.5668    2.1732   47.7518 N.2     1  ZINC000508571532   -0.3000
     12 C12        -3.1532    2.2102   48.9964 C.2     1  ZINC000508571532    0.3500
     13 N13        -3.8609    2.6931   50.0857 N.3     1  ZINC000508571532   -0.4600
     14 C14        -4.5842    3.9240   49.7398 C.3     1  ZINC000508571532    0.0300
     15 C15        -4.7784    1.6735   50.6114 C.3     1  ZINC000508571532    0.1100
     16 C16        -5.0227    1.9251   52.0771 C.ar    1  ZINC000508571532   -0.0900
     17 C17        -3.9571    2.1476   52.9272 C.ar    1  ZINC000508571532   -0.0600
     18 C18        -4.1805    2.3781   54.2722 C.ar    1  ZINC000508571532   -0.1300
     19 C19        -5.4703    2.3871   54.7694 C.ar    1  ZINC000508571532   -0.0700
     20 C20        -6.5398    2.1655   53.9231 C.ar    1  ZINC000508571532   -0.1900
     21 C21        -6.3187    1.9393   52.5726 C.ar    1  ZINC000508571532    0.1100
     22 O22        -7.3688    1.7211   51.7381 O.3     1  ZINC000508571532   -0.3100
     23 C23        -8.1837    2.8489   51.4123 C.3     1  ZINC000508571532    0.6000
     24 F24        -9.3863    2.7765   52.1235 F       1  ZINC000508571532   -0.1600
     25 F25        -7.5095    4.0259   51.7550 F       1  ZINC000508571532   -0.1300
     26 F26        -8.4530    2.8486   50.0395 F       1  ZINC000508571532   -0.1600
     27 N27        -1.8969    1.6779   49.0167 N.pl3   1  ZINC000508571532   -0.4500
     28 C28        -1.0274    1.5070   50.1832 C.3     1  ZINC000508571532    0.0800
     29 C29         0.4945    3.3067   46.9516 C.ar    1  ZINC000508571532   -0.1700
     30 C30         0.7376    4.6627   46.8500 C.ar    1  ZINC000508571532   -0.1100
     31 H31         1.0373    8.2690   44.2714 H       1  ZINC000508571532    0.1000
     32 H32         1.5582    6.7253   43.5545 H       1  ZINC000508571532    0.0600
     33 H33        -0.1736    7.0497   43.8077 H       1  ZINC000508571532    0.0600
     34 H34         0.3332    5.0353   43.5140 H       1  ZINC000508571532    0.1400
     35 H35        -0.0937    2.6179   43.6942 H       1  ZINC000508571532    0.1300
     36 H36        -0.4587   -0.3596   47.1630 H       1  ZINC000508571532    0.0800
     37 H37         0.4778    0.9639   47.8973 H       1  ZINC000508571532    0.1000
     38 H38        -5.3834    3.6904   49.0366 H       1  ZINC000508571532    0.0600
     39 H39        -5.0108    4.3607   50.6428 H       1  ZINC000508571532    0.0800
     40 H40        -3.8949    4.6344   49.2835 H       1  ZINC000508571532    0.0700
     41 H41        -5.7242    1.7228   50.0718 H       1  ZINC000508571532    0.0700
     42 H42        -4.3368    0.6855   50.4810 H       1  ZINC000508571532    0.0900
     43 H43        -2.9484    2.1411   52.5411 H       1  ZINC000508571532    0.1400
     44 H44        -3.3459    2.5511   54.9355 H       1  ZINC000508571532    0.1300
     45 H45        -5.6423    2.5670   55.8204 H       1  ZINC000508571532    0.1400
     46 H46        -7.5473    2.1723   54.3121 H       1  ZINC000508571532    0.1400
     47 H47        -1.1425    0.4973   50.5774 H       1  ZINC000508571532    0.0900
     48 H48         0.0101    1.6664   49.8896 H       1  ZINC000508571532    0.0900
     49 H49        -1.3030    2.2302   50.9509 H       1  ZINC000508571532    0.1000
     50 H50         0.5395    2.8208   47.9151 H       1  ZINC000508571532    0.1400
     51 H51         0.9701    5.2374   47.7344 H       1  ZINC000508571532    0.1400
@<TRIPOS>BOND
     1     1     2    1
     2     1    31    1
     3     1    32    1
     4     1    33    1
     5     2     3    1
     6     3    30   ar
     7     3     4   ar
     8     4     5   ar
     9     4    34    1
    10     5     6   ar
    11     5    35    1
    12     6     7    1
    13     6    29   ar
    14     7     8    1
    15     8     9    1
    16     8    36    1
    17     8    37    1
    18     9    27    1
    19     9    10    2
    20    10    11    1
    21    11    12    2
    22    12    13    1
    23    12    27    1
    24    13    14    1
    25    13    15    1
    26    14    38    1
    27    14    39    1
    28    14    40    1
    29    15    16    1
    30    15    41    1
    31    15    42    1
    32    16    21   ar
    33    16    17   ar
    34    17    18   ar
    35    17    43    1
    36    18    19   ar
    37    18    44    1
    38    19    20   ar
    39    19    45    1
    40    20    21   ar
    41    20    46    1
    42    21    22    1
    43    22    23    1
    44    23    24    1
    45    23    25    1
    46    23    26    1
    47    27    28    1
    48    28    47    1
    49    28    48    1
    50    28    49    1
    51    29    30   ar
    52    29    50    1
    53    30    51    1
@<TRIPOS>SUBSTRUCTURE
     1 ZINC000508571532        1 TEMP              0 ****  ****    0 ROOT


##########                                Name:    ZINC000643274279
##########                DOCK_Rotatable_Bonds:                   6
##########                         Heavy_Atoms:                  29
##########                    Molecular_Weight:             392.454
##########                DOCK_Rotatable_Bonds:                   6
##########                       Formal_Charge:         -0.00999939
##########                     HBond_Acceptors:                   6
##########                        HBond_Donors:                   2
##########                         Heavy_Atoms:                  29
##########                          Grid_Score:          -30.066460
##########                     Grid_vdw_energy:          -29.104969
##########                      Grid_es_energy:           -0.961491
##########           Internal_energy_repulsive:            8.851992

@<TRIPOS>MOLECULE
ZINC000643274279
 53 56 1 0 0
SMALL
USER_CHARGES


@<TRIPOS>ATOM
      1 O1         -9.0716    2.2685   54.8720 O.2     1  ZINC000643274279   -0.4900
      2 C2         -8.3812    1.4913   55.4986 C.2     1  ZINC000643274279    0.5100
      3 N3         -7.0521    1.4435   55.2805 N.am    1  ZINC000643274279   -0.6400
      4 C4         -6.4696    2.2847   54.3285 C.ar    1  ZINC000643274279    0.1300
      5 C5         -5.8478    3.4616   54.7304 C.ar    1  ZINC000643274279   -0.1000
      6 C6         -5.2784    4.3069   53.7937 C.ar    1  ZINC000643274279   -0.1000
      7 C7         -5.3292    3.9821   52.4561 C.ar    1  ZINC000643274279   -0.0600
      8 C8         -4.7682    4.9401   51.4198 C.3     1  ZINC000643274279   -0.0900
      9 C9         -3.5382    4.3151   50.7716 C.3     1  ZINC000643274279   -0.1200
     10 C10        -3.9164    3.4453   49.5822 C.3     1  ZINC000643274279   -0.1100
     11 C11        -4.5994    2.1537   49.9548 C.3     1  ZINC000643274279   -0.1600
     12 C12        -5.9356    2.4411   50.6116 C.2     1  ZINC000643274279    0.4100
     13 O13        -6.9708    2.3833   49.9830 O.2     1  ZINC000643274279   -0.4400
     14 C14        -5.9289    2.7928   52.0424 C.ar    1  ZINC000643274279   -0.1300
     15 C15        -6.5078    1.9409   52.9849 C.ar    1  ZINC000643274279   -0.1000
     16 C16        -9.0038    0.5923   56.5160 C.2     1  ZINC000643274279    0.5200
     17 O17        -9.8938   -0.1664   56.1917 O.2     1  ZINC000643274279   -0.5000
     18 N18        -8.5772    0.6237   57.7940 N.am    1  ZINC000643274279   -0.5800
     19 C19        -7.5097    1.4923   58.3226 C.3     1  ZINC000643274279    0.0900
     20 C20        -7.8153    1.6200   59.8358 C.3     1  ZINC000643274279   -0.1400
     21 C21        -8.3324    0.1960   60.1705 C.3     1  ZINC000643274279   -0.1200
     22 C22        -9.1038   -0.1983   58.8934 C.3     1  ZINC000643274279    0.1800
     23 H23       -10.1682   -0.0067   59.0292 H       1  ZINC000643274279    0.0900
     24 C24        -8.8806   -1.6574   58.5899 C.ar    1  ZINC000643274279   -0.1000
     25 C25        -7.5936   -2.1512   58.4832 C.ar    1  ZINC000643274279   -0.0900
     26 C26        -7.3862   -3.4884   58.2050 C.ar    1  ZINC000643274279   -0.1400
     27 C27        -8.4708   -4.3361   58.0331 C.ar    1  ZINC000643274279    0.1100
     28 O28        -8.2695   -5.6520   57.7597 O.3     1  ZINC000643274279   -0.5000
     29 C29        -9.7612   -3.8383   58.1410 C.ar    1  ZINC000643274279   -0.1400
     30 C30        -9.9633   -2.5014   58.4241 C.ar    1  ZINC000643274279   -0.0900
     31 H31        -6.4999    0.8252   55.7840 H       1  ZINC000643274279    0.4200
     32 H32        -5.8092    3.7179   55.7789 H       1  ZINC000643274279    0.1400
     33 H33        -4.7957    5.2194   54.1110 H       1  ZINC000643274279    0.1400
     34 H34        -5.5226    5.1340   50.6573 H       1  ZINC000643274279    0.0800
     35 H35        -4.4890    5.8764   51.9031 H       1  ZINC000643274279    0.0800
     36 H36        -2.8710    5.1086   50.4349 H       1  ZINC000643274279    0.0800
     37 H37        -3.0186    3.7036   51.5093 H       1  ZINC000643274279    0.0700
     38 H38        -4.5820    4.0150   48.9338 H       1  ZINC000643274279    0.0700
     39 H39        -3.0108    3.2099   49.0229 H       1  ZINC000643274279    0.0800
     40 H40        -4.7591    1.5571   49.0566 H       1  ZINC000643274279    0.0900
     41 H41        -3.9680    1.5978   50.6480 H       1  ZINC000643274279    0.0900
     42 H42        -6.9845    1.0242   52.6705 H       1  ZINC000643274279    0.1300
     43 H43        -6.5344    1.0303   58.1702 H       1  ZINC000643274279    0.0800
     44 H44        -7.5457    2.4712   57.8443 H       1  ZINC000643274279    0.1000
     45 H45        -6.9108    1.8496   60.3990 H       1  ZINC000643274279    0.0900
     46 H46        -8.5868    2.3684   60.0168 H       1  ZINC000643274279    0.0800
     47 H47        -7.4999   -0.4847   60.3483 H       1  ZINC000643274279    0.0800
     48 H48        -9.0019    0.2210   61.0304 H       1  ZINC000643274279    0.0900
     49 H49        -6.7495   -1.4908   58.6171 H       1  ZINC000643274279    0.1200
     50 H50        -6.3807   -3.8734   58.1211 H       1  ZINC000643274279    0.1300
     51 H51        -9.0849   -6.1608   57.6531 H       1  ZINC000643274279    0.3900
     52 H52       -10.6073   -4.4962   58.0072 H       1  ZINC000643274279    0.1300
     53 H53       -10.9675   -2.1135   58.5086 H       1  ZINC000643274279    0.1300
@<TRIPOS>BOND
     1     1     2    2
     2     2     3   am
     3     2    16    1
     4     3     4    1
     5     3    31    1
     6     4    15   ar
     7     4     5   ar
     8     5     6   ar
     9     5    32    1
    10     6     7   ar
    11     6    33    1
    12     7    14   ar
    13     7     8    1
    14     8     9    1
    15     8    34    1
    16     8    35    1
    17     9    10    1
    18     9    36    1
    19     9    37    1
    20    10    11    1
    21    10    38    1
    22    10    39    1
    23    11    12    1
    24    11    40    1
    25    11    41    1
    26    12    13    2
    27    12    14    1
    28    14    15   ar
    29    15    42    1
    30    16    17    2
    31    16    18   am
    32    18    22    1
    33    18    19    1
    34    19    20    1
    35    19    43    1
    36    19    44    1
    37    20    21    1
    38    20    45    1
    39    20    46    1
    40    21    22    1
    41    21    47    1
    42    21    48    1
    43    22    23    1
    44    22    24    1
    45    24    30   ar
    46    24    25   ar
    47    25    26   ar
    48    25    49    1
    49    26    27   ar
    50    26    50    1
    51    27    28    1
    52    27    29   ar
    53    28    51    1
    54    29    30   ar
    55    29    52    1
    56    30    53    1
@<TRIPOS>SUBSTRUCTURE
     1 ZINC000643274279        1 TEMP              0 ****  ****    0 ROOT


##########                                Name:    ZINC000821442454
##########                DOCK_Rotatable_Bonds:                   6
##########                         Heavy_Atoms:                  26
##########                    Molecular_Weight:             398.873
##########                DOCK_Rotatable_Bonds:                   6
##########                       Formal_Charge:          -0.0399996
##########                     HBond_Acceptors:                  11
##########                        HBond_Donors:                   2
##########                         Heavy_Atoms:                  26
##########                          Grid_Score:          -30.056686
##########                     Grid_vdw_energy:          -29.147308
##########                      Grid_es_energy:           -0.909378
##########           Internal_energy_repulsive:           10.408282

@<TRIPOS>MOLECULE
ZINC000821442454
 45 47 1 0 0
SMALL
USER_CHARGES


@<TRIPOS>ATOM
      1 C1         -8.3135    1.0982   59.3284 C.3     1  ZINC000821442454   -0.1500
      2 C2         -7.0566    1.4997   58.5540 C.3     1  ZINC000821442454   -0.6300
      3 S3         -7.5347    2.3386   57.0183 S.o2    1  ZINC000821442454    2.6000
      4 O4         -8.1973    1.4366   56.1429 O.2     1  ZINC000821442454   -0.9500
      5 O5         -8.0796    3.6205   57.2993 O.2     1  ZINC000821442454   -0.9500
      6 N6         -6.0985    2.6626   56.2601 N.am    1  ZINC000821442454   -1.0000
      7 C7         -5.0839    3.5056   56.9073 C.3     1  ZINC000821442454    0.1100
      8 C8         -4.7009    4.6387   55.9500 C.3     1  ZINC000821442454   -0.1300
      9 C9         -4.2618    4.0430   54.6106 C.3     1  ZINC000821442454   -0.1100
     10 C10        -5.4232    3.2609   53.9929 C.3     1  ZINC000821442454   -0.1200
     11 H11        -6.2767    3.9248   53.8555 H       1  ZINC000821442454    0.1100
     12 C12        -5.0004    2.7025   52.6585 C.2     1  ZINC000821442454    0.5300
     13 O13        -5.6464    1.8169   52.1396 O.2     1  ZINC000821442454   -0.5100
     14 N14        -3.9043    3.1871   52.0420 N.am    1  ZINC000821442454   -0.6700
     15 C15        -3.5118    2.6689   50.8035 C.ar    1  ZINC000821442454    0.1800
     16 C16        -2.3981    1.8430   50.7186 C.ar    1  ZINC000821442454   -0.1200
     17 C17        -2.0096    1.3303   49.4986 C.ar    1  ZINC000821442454   -0.0500
     18 C18        -2.7347    1.6411   48.3501 C.ar    1  ZINC000821442454   -0.0300
     19 C19        -2.3181    1.0899   47.0365 C.2     1  ZINC000821442454    0.2200
     20 N20        -2.3243    1.7220   45.8797 N.2     1  ZINC000821442454   -0.2900
     21 N21        -1.8922    0.9050   44.9816 N.pl3   1  ZINC000821442454   -0.2200
     22 N22        -1.6123   -0.2243   45.5326 N.2     1  ZINC000821442454   -0.0400
     23 N23        -1.8567   -0.1457   46.7965 N.2     1  ZINC000821442454   -0.2700
     24 C24        -3.8521    2.4698   48.4364 C.ar    1  ZINC000821442454   -0.0500
     25 C25        -4.2407    2.9763   49.6594 C.ar    1  ZINC000821442454   -0.0800
     26 Cl26       -5.6321    4.0087   49.7683 Cl      1  ZINC000821442454   -0.0500
     27 C27        -5.8121    2.1076   54.9303 C.3     1  ZINC000821442454    0.1400
     28 H28        -8.8937    1.9896   59.5668 H       1  ZINC000821442454    0.0700
     29 H29        -8.9161    0.4248   58.7189 H       1  ZINC000821442454    0.0700
     30 H30        -8.0263    0.5941   60.2512 H       1  ZINC000821442454    0.0800
     31 H31        -6.4540    2.1731   59.1635 H       1  ZINC000821442454    0.1300
     32 H32        -6.4764    0.6082   58.3156 H       1  ZINC000821442454    0.1300
     33 H33        -5.4906    3.9260   57.8270 H       1  ZINC000821442454    0.1000
     34 H34        -4.2024    2.9065   57.1355 H       1  ZINC000821442454    0.0700
     35 H35        -5.5612    5.2897   55.7942 H       1  ZINC000821442454    0.0700
     36 H36        -3.8808    5.2151   56.3783 H       1  ZINC000821442454    0.0800
     37 H37        -3.9652    4.8460   53.9357 H       1  ZINC000821442454    0.0700
     38 H38        -3.4171    3.3730   54.7705 H       1  ZINC000821442454    0.0800
     39 H39        -3.3876    3.8954   52.4571 H       1  ZINC000821442454    0.4200
     40 H40        -1.8358    1.6024   51.6088 H       1  ZINC000821442454    0.1600
     41 H41        -1.1433    0.6887   49.4334 H       1  ZINC000821442454    0.1500
     42 H42        -1.7935    1.1088   44.0384 H       1  ZINC000821442454    0.4800
     43 H43        -4.4154    2.7119   47.5475 H       1  ZINC000821442454    0.1500
     44 H44        -4.9890    1.3958   54.9950 H       1  ZINC000821442454    0.0800
     45 H45        -6.7008    1.6076   54.5452 H       1  ZINC000821442454    0.1000
@<TRIPOS>BOND
     1     1     2    1
     2     1    28    1
     3     1    29    1
     4     1    30    1
     5     2     3    1
     6     2    31    1
     7     2    32    1
     8     3     4    2
     9     3     5    2
    10     3     6   am
    11     6    27    1
    12     6     7    1
    13     7     8    1
    14     7    33    1
    15     7    34    1
    16     8     9    1
    17     8    35    1
    18     8    36    1
    19     9    10    1
    20     9    37    1
    21     9    38    1
    22    10    11    1
    23    10    12    1
    24    10    27    1
    25    12    13    2
    26    12    14   am
    27    14    15    1
    28    14    39    1
    29    15    25   ar
    30    15    16   ar
    31    16    17   ar
    32    16    40    1
    33    17    18   ar
    34    17    41    1
    35    18    19    1
    36    18    24   ar
    37    19    23    1
    38    19    20    2
    39    20    21    1
    40    21    22    1
    41    21    42    1
    42    22    23    2
    43    24    25   ar
    44    24    43    1
    45    25    26    1
    46    27    44    1
    47    27    45    1
@<TRIPOS>SUBSTRUCTURE
     1 ZINC000821442454        1 TEMP              0 ****  ****    0 ROOT


##########                                Name:    ZINC000573150059
##########                DOCK_Rotatable_Bonds:                   7
##########                         Heavy_Atoms:                  23
##########                    Molecular_Weight:             378.269
##########                DOCK_Rotatable_Bonds:                   7
##########                       Formal_Charge:        -2.98023e-07
##########                     HBond_Acceptors:                   5
##########                        HBond_Donors:                   2
##########                         Heavy_Atoms:                  23
##########                          Grid_Score:          -30.056490
##########                     Grid_vdw_energy:          -28.767965
##########                      Grid_es_energy:           -1.288524
##########           Internal_energy_repulsive:            6.052835

@<TRIPOS>MOLECULE
ZINC000573150059
 43 44 1 0 0
SMALL
USER_CHARGES


@<TRIPOS>ATOM
      1 C1         -7.3916    2.5533   49.8245 C.3     1  ZINC000573150059    0.0300
      2 O2         -6.0580    2.7647   49.3567 O.3     1  ZINC000573150059   -0.3600
      3 C3         -5.0616    2.0663   50.1058 C.3     1  ZINC000573150059    0.0700
      4 H4         -5.2796    0.9984   50.0932 H       1  ZINC000573150059    0.0900
      5 C5         -3.6871    2.3136   49.4811 C.3     1  ZINC000573150059   -0.1700
      6 C6         -5.0633    2.5624   51.5288 C.2     1  ZINC000573150059    0.5100
      7 O7         -5.3629    3.7128   51.7696 O.2     1  ZINC000573150059   -0.4900
      8 N8         -4.7318    1.7279   52.5338 N.am    1  ZINC000573150059   -0.6700
      9 C9         -4.7334    2.1886   53.8551 C.ar    1  ZINC000573150059    0.1900
     10 C10        -3.6413    2.8920   54.3474 C.ar    1  ZINC000573150059   -0.2000
     11 C11        -3.6418    3.3474   55.6520 C.ar    1  ZINC000573150059   -0.0500
     12 C12        -4.7277    3.1056   56.4707 C.ar    1  ZINC000573150059   -0.2200
     13 C13        -5.8237    2.4029   55.9842 C.ar    1  ZINC000573150059    0.2400
     14 N14        -6.9216    2.1591   56.8124 N.pl3   1  ZINC000573150059   -0.7300
     15 C15        -6.7406    1.4404   58.0761 C.3     1  ZINC000573150059    0.2000
     16 H16        -5.6907    1.1727   58.1946 H       1  ZINC000573150059    0.1000
     17 C17        -7.1729    2.3362   59.2387 C.3     1  ZINC000573150059   -0.1700
     18 C18        -7.5803    0.1890   58.0670 C.ar    1  ZINC000573150059    0.1400
     19 C19        -6.9929   -1.0293   58.3505 C.ar    1  ZINC000573150059   -0.1600
     20 C20        -7.7740   -2.1749   58.3402 C.ar    1  ZINC000573150059   -0.0400
     21 C21        -9.1233   -2.0511   58.0433 C.ar    1  ZINC000573150059   -0.1500
     22 Br22      -10.2413   -3.5759   58.0139 Br      1  ZINC000573150059   -0.0300
     23 C23        -9.6405   -0.7978   57.7697 C.ar    1  ZINC000573150059    0.1400
     24 N24        -8.8679    0.2703   57.7938 N.ar    1  ZINC000573150059   -0.4700
     25 C25        -5.8281    1.9484   54.6731 C.ar    1  ZINC000573150059   -0.1900
     26 H26        -7.6322    1.4917   49.7685 H       1  ZINC000573150059    0.0500
     27 H27        -7.4716    2.8898   50.8582 H       1  ZINC000573150059    0.0400
     28 H28        -8.0881    3.1170   49.2039 H       1  ZINC000573150059    0.0900
     29 H29        -3.4691    3.3815   49.4937 H       1  ZINC000573150059    0.0700
     30 H30        -2.9270    1.7809   50.0525 H       1  ZINC000573150059    0.0700
     31 H31        -3.6858    1.9547   48.4519 H       1  ZINC000573150059    0.0700
     32 H32        -4.4923    0.8078   52.3413 H       1  ZINC000573150059    0.4100
     33 H33        -2.7907    3.0827   53.7097 H       1  ZINC000573150059    0.1200
     34 H34        -2.7911    3.8934   56.0324 H       1  ZINC000573150059    0.1300
     35 H35        -4.7249    3.4626   57.4899 H       1  ZINC000573150059    0.1200
     36 H36        -7.8040    2.4656   56.5508 H       1  ZINC000573150059    0.4100
     37 H37        -8.2228    2.6039   59.1201 H       1  ZINC000573150059    0.0600
     38 H38        -7.0383    1.8015   60.1789 H       1  ZINC000573150059    0.0700
     39 H39        -6.5656    3.2414   59.2452 H       1  ZINC000573150059    0.0700
     40 H40        -5.9387   -1.0884   58.5772 H       1  ZINC000573150059    0.1500
     41 H41        -7.3419   -3.1405   58.5576 H       1  ZINC000573150059    0.1500
     42 H42       -10.6900   -0.6924   57.5373 H       1  ZINC000573150059    0.1700
     43 H43        -6.6786    1.4024   54.2924 H       1  ZINC000573150059    0.1400
@<TRIPOS>BOND
     1     1     2    1
     2     1    26    1
     3     1    27    1
     4     1    28    1
     5     2     3    1
     6     3     4    1
     7     3     5    1
     8     3     6    1
     9     5    29    1
    10     5    30    1
    11     5    31    1
    12     6     7    2
    13     6     8   am
    14     8     9    1
    15     8    32    1
    16     9    25   ar
    17     9    10   ar
    18    10    11   ar
    19    10    33    1
    20    11    12   ar
    21    11    34    1
    22    12    13   ar
    23    12    35    1
    24    13    14    1
    25    13    25   ar
    26    14    15    1
    27    14    36    1
    28    15    16    1
    29    15    17    1
    30    15    18    1
    31    17    37    1
    32    17    38    1
    33    17    39    1
    34    18    24   ar
    35    18    19   ar
    36    19    20   ar
    37    19    40    1
    38    20    21   ar
    39    20    41    1
    40    21    22    1
    41    21    23   ar
    42    23    24   ar
    43    23    42    1
    44    25    43    1
@<TRIPOS>SUBSTRUCTURE
     1 ZINC000573150059        1 TEMP              0 ****  ****    0 ROOT


##########                                Name:    ZINC000772422035
##########                DOCK_Rotatable_Bonds:                  10
##########                         Heavy_Atoms:                  25
##########                    Molecular_Weight:             348.399
##########                DOCK_Rotatable_Bonds:                  10
##########                       Formal_Charge:          0.00999987
##########                     HBond_Acceptors:                   7
##########                        HBond_Donors:                   0
##########                         Heavy_Atoms:                  25
##########                          Grid_Score:          -30.051874
##########                     Grid_vdw_energy:          -30.027557
##########                      Grid_es_energy:           -0.024318
##########           Internal_energy_repulsive:           15.718565

@<TRIPOS>MOLECULE
ZINC000772422035
 49 50 1 0 0
SMALL
USER_CHARGES


@<TRIPOS>ATOM
      1 C1         -5.7908    3.7376   66.6332 C.3     1  ZINC000772422035    0.0300
      2 O2         -6.1718    2.3644   66.7395 O.3     1  ZINC000772422035   -0.3900
      3 C3         -6.7771    1.8359   65.5579 C.3     1  ZINC000772422035    0.0600
      4 C4         -7.1426    0.3678   65.7850 C.3     1  ZINC000772422035    0.0700
      5 O5         -7.7478   -0.1607   64.6033 O.3     1  ZINC000772422035   -0.3000
      6 C6         -8.9826    0.3020   64.2840 C.ar    1  ZINC000772422035    0.3300
      7 C7         -9.4960    0.0720   63.0143 C.ar    1  ZINC000772422035   -0.1700
      8 C8        -10.7570    0.5492   62.7011 C.ar    1  ZINC000772422035   -0.0200
      9 C9        -11.3503    0.3204   61.3348 C.3     1  ZINC000772422035    0.1100
     10 O10       -10.9408   -0.9823   60.8413 O.3     1  ZINC000772422035   -0.3500
     11 C11       -11.4188   -1.3585   59.6447 C.2     1  ZINC000772422035    0.4700
     12 O12       -12.3669   -0.7832   59.1649 O.2     1  ZINC000772422035   -0.5000
     13 C13       -10.7730   -2.4983   58.8999 C.3     1  ZINC000772422035   -0.1100
     14 C14        -9.8529   -1.9403   57.8121 C.3     1  ZINC000772422035    0.0000
     15 H15       -10.0232   -0.8689   57.7067 H       1  ZINC000772422035    0.1000
     16 C16       -10.1524   -2.6376   56.4836 C.3     1  ZINC000772422035   -0.1500
     17 C17        -8.4161   -2.1853   58.1953 C.2     1  ZINC000772422035   -0.2000
     18 C18        -7.7855   -3.3739   58.3509 C.2     1  ZINC000772422035   -0.0200
     19 C19        -8.3869   -4.7443   58.1741 C.3     1  ZINC000772422035   -0.0800
     20 O20        -6.5208   -3.0905   58.6932 O.3     1  ZINC000772422035    0.1000
     21 N21        -6.3342   -1.8975   58.7568 N.2     1  ZINC000772422035   -0.3600
     22 C22        -7.4129   -1.2277   58.4696 C.2     1  ZINC000772422035    0.0300
     23 C23        -7.5647    0.2714   58.4441 C.3     1  ZINC000772422035   -0.0800
     24 C24       -11.4627    1.2430   63.6741 C.ar    1  ZINC000772422035   -0.1900
     25 C25       -10.8902    1.4348   64.9160 C.ar    1  ZINC000772422035    0.1400
     26 N26        -9.6881    0.9630   65.1867 N.ar    1  ZINC000772422035   -0.5300
     27 H27        -5.3395    4.0631   67.5705 H       1  ZINC000772422035    0.0900
     28 H28        -5.0703    3.8530   65.8236 H       1  ZINC000772422035    0.0400
     29 H29        -6.6722    4.3441   66.4245 H       1  ZINC000772422035    0.0400
     30 H30        -7.6786    2.4032   65.3265 H       1  ZINC000772422035    0.0600
     31 H31        -6.0767    1.9116   64.7260 H       1  ZINC000772422035    0.0700
     32 H32        -6.2409   -0.1995   66.0163 H       1  ZINC000772422035    0.0800
     33 H33        -7.8427    0.2921   66.6170 H       1  ZINC000772422035    0.0800
     34 H34        -8.9190   -0.4717   62.2809 H       1  ZINC000772422035    0.1400
     35 H35       -12.4376    0.3590   61.3997 H       1  ZINC000772422035    0.0900
     36 H36       -10.9993    1.0943   60.6520 H       1  ZINC000772422035    0.0900
     37 H37       -10.1896   -3.1022   59.5948 H       1  ZINC000772422035    0.1100
     38 H38       -11.5449   -3.1161   58.4410 H       1  ZINC000772422035    0.1100
     39 H39       -10.1060   -3.7178   56.6217 H       1  ZINC000772422035    0.0600
     40 H40       -11.1492   -2.3574   56.1429 H       1  ZINC000772422035    0.0800
     41 H41        -9.4156   -2.3342   55.7399 H       1  ZINC000772422035    0.0600
     42 H42        -8.3489   -5.0247   57.1215 H       1  ZINC000772422035    0.0900
     43 H43        -7.8228   -5.4674   58.7633 H       1  ZINC000772422035    0.0900
     44 H44        -9.4239   -4.7321   58.5097 H       1  ZINC000772422035    0.0900
     45 H45        -7.4078    0.6353   57.4287 H       1  ZINC000772422035    0.0800
     46 H46        -8.5674    0.5408   58.7757 H       1  ZINC000772422035    0.0800
     47 H47        -6.8285    0.7226   59.1095 H       1  ZINC000772422035    0.0800
     48 H48       -12.4489    1.6289   63.4623 H       1  ZINC000772422035    0.1400
     49 H49       -11.4352    1.9739   65.6768 H       1  ZINC000772422035    0.1700
@<TRIPOS>BOND
     1     1     2    1
     2     1    27    1
     3     1    28    1
     4     1    29    1
     5     2     3    1
     6     3     4    1
     7     3    30    1
     8     3    31    1
     9     4     5    1
    10     4    32    1
    11     4    33    1
    12     5     6    1
    13     6    26   ar
    14     6     7   ar
    15     7     8   ar
    16     7    34    1
    17     8     9    1
    18     8    24   ar
    19     9    10    1
    20     9    35    1
    21     9    36    1
    22    10    11    1
    23    11    12    2
    24    11    13    1
    25    13    14    1
    26    13    37    1
    27    13    38    1
    28    14    15    1
    29    14    16    1
    30    14    17    1
    31    16    39    1
    32    16    40    1
    33    16    41    1
    34    17    22    1
    35    17    18    2
    36    18    19    1
    37    18    20    1
    38    19    42    1
    39    19    43    1
    40    19    44    1
    41    20    21    1
    42    21    22    2
    43    22    23    1
    44    23    45    1
    45    23    46    1
    46    23    47    1
    47    24    25   ar
    48    24    48    1
    49    25    26   ar
    50    25    49    1
@<TRIPOS>SUBSTRUCTURE
     1 ZINC000772422035        1 TEMP              0 ****  ****    0 ROOT


##########                                Name:    ZINC000013551438
##########                DOCK_Rotatable_Bonds:                   5
##########                         Heavy_Atoms:                  27
##########                    Molecular_Weight:             377.467
##########                DOCK_Rotatable_Bonds:                   5
##########                       Formal_Charge:          -0.0300005
##########                     HBond_Acceptors:                   6
##########                        HBond_Donors:                   1
##########                         Heavy_Atoms:                  27
##########                          Grid_Score:          -30.048695
##########                     Grid_vdw_energy:          -28.741619
##########                      Grid_es_energy:           -1.307076
##########           Internal_energy_repulsive:            7.948459

@<TRIPOS>MOLECULE
ZINC000013551438
 46 49 1 0 0
SMALL
USER_CHARGES


@<TRIPOS>ATOM
      1 C1        -11.4043   -0.0346   52.6319 C.3     1  <0>         0.0300
      2 O2        -10.1030   -0.6006   52.8002 O.3     1  <0>        -0.3200
      3 C3         -9.3006   -0.0345   53.7410 C.ar    1  <0>         0.1000
      4 C4         -9.5195   -0.2996   55.0899 C.ar    1  <0>        -0.1800
      5 C5         -8.7159    0.2659   56.0548 C.ar    1  <0>        -0.0900
      6 C6         -7.6741    1.1104   55.6852 C.ar    1  <0>         0.0700
      7 C7         -7.4513    1.3788   54.3239 C.ar    1  <0>        -0.0400
      8 C8         -8.2675    0.7970   53.3543 C.ar    1  <0>        -0.1100
      9 C9         -6.2975    2.2907   54.2719 C.2     1  <0>        -0.1200
     10 C10        -5.6766    2.8636   53.0524 C.2     1  <0>         0.1700
     11 C11        -5.9604    4.0987   52.5980 C.2     1  <0>        -0.3000
     12 S12        -5.0114    4.3744   51.1399 S.3     1  <0>         0.2500
     13 C13        -4.3250    2.8150   51.2739 C.2     1  <0>         0.2400
     14 N14        -3.3960    2.2799   50.3916 N.am    1  <0>        -0.6200
     15 C15        -3.5531    2.4480   49.0636 C.2     1  <0>         0.5600
     16 O16        -4.5075    3.0695   48.6384 O.2     1  <0>        -0.5000
     17 C17        -2.5651    1.8770   48.1244 C.ar    1  <0>        -0.1400
     18 C18        -1.6023    0.9758   48.5821 C.ar    1  <0>        -0.0800
     19 C19        -0.6833    0.4460   47.7000 C.ar    1  <0>        -0.1300
     20 C20        -0.7146    0.8061   46.3645 C.ar    1  <0>        -0.0800
     21 C21        -1.6659    1.6992   45.9044 C.ar    1  <0>        -0.1300
     22 C22        -2.5944    2.2320   46.7746 C.ar    1  <0>        -0.0500
     23 N23        -4.7889    2.2053   52.3179 N.2     1  <0>        -0.5000
     24 C24        -5.9124    2.5065   55.5522 C.2     1  <0>         0.1300
     25 C25        -4.7626    3.3838   55.9757 C.3     1  <0>        -0.0900
     26 N26        -6.7250    1.8087   56.4030 N.pl3   1  <0>        -0.4800
     27 C27        -6.6056    1.8042   57.8631 C.3     1  <0>         0.0800
     28 H28       -11.3107    1.0128   52.3450 H       1  <0>         0.0500
     29 H29       -11.9389   -0.5783   51.8528 H       1  <0>         0.1000
     30 H30       -11.9559   -0.1068   53.5691 H       1  <0>         0.0500
     31 H31       -10.3272   -0.9542   55.3823 H       1  <0>         0.1300
     32 H32        -8.8947    0.0539   57.0987 H       1  <0>         0.1200
     33 H33        -8.0980    1.0019   52.3076 H       1  <0>         0.1300
     34 H34        -6.6492    4.7979   53.0486 H       1  <0>         0.1800
     35 H35        -2.6338    1.7851   50.7309 H       1  <0>         0.4200
     36 H36        -1.5766    0.6941   49.6244 H       1  <0>         0.1300
     37 H37         0.0624   -0.2510   48.0528 H       1  <0>         0.1300
     38 H38         0.0072    0.3885   45.6781 H       1  <0>         0.1300
     39 H39        -1.6846    1.9765   44.8606 H       1  <0>         0.1300
     40 H40        -3.3366    2.9287   46.4142 H       1  <0>         0.1400
     41 H41        -5.1353    4.3786   56.2197 H       1  <0>         0.0800
     42 H42        -4.2795    2.9517   56.8520 H       1  <0>         0.0700
     43 H43        -4.0413    3.4556   55.1616 H       1  <0>         0.0800
     44 H44        -7.2112    2.6091   58.2796 H       1  <0>         0.0700
     45 H45        -6.9543    0.8480   58.2532 H       1  <0>         0.0800
     46 H46        -5.5626    1.9523   58.1428 H       1  <0>         0.0800
@<TRIPOS>BOND
     1     1     2    1
     2     1    28    1
     3     1    29    1
     4     1    30    1
     5     2     3    1
     6     3     8   ar
     7     3     4   ar
     8     4     5   ar
     9     4    31    1
    10     5     6   ar
    11     5    32    1
    12     6    26    1
    13     6     7   ar
    14     7     8   ar
    15     7     9    1
    16     8    33    1
    17     9    10    1
    18     9    24    2
    19    10    23    1
    20    10    11    2
    21    11    12    1
    22    11    34    1
    23    12    13    1
    24    13    14    1
    25    13    23    2
    26    14    15   am
    27    14    35    1
    28    15    16    2
    29    15    17    1
    30    17    22   ar
    31    17    18   ar
    32    18    19   ar
    33    18    36    1
    34    19    20   ar
    35    19    37    1
    36    20    21   ar
    37    20    38    1
    38    21    22   ar
    39    21    39    1
    40    22    40    1
    41    24    25    1
    42    24    26    1
    43    25    41    1
    44    25    42    1
    45    25    43    1
    46    26    27    1
    47    27    44    1
    48    27    45    1
    49    27    46    1
@<TRIPOS>SUBSTRUCTURE
     1 <0>         1 TEMP              0 ****  ****    0 ROOT


##########                                Name:    ZINC000655982608
##########                DOCK_Rotatable_Bonds:                   5
##########                         Heavy_Atoms:                  29
##########                    Molecular_Weight:             388.469
##########                DOCK_Rotatable_Bonds:                   5
##########                       Formal_Charge:          -0.0200006
##########                     HBond_Acceptors:                   6
##########                        HBond_Donors:                   0
##########                         Heavy_Atoms:                  29
##########                          Grid_Score:          -30.046690
##########                     Grid_vdw_energy:          -28.877319
##########                      Grid_es_energy:           -1.169370
##########           Internal_energy_repulsive:           25.706526

@<TRIPOS>MOLECULE
ZINC000655982608
 53 57 1 0 0
SMALL
USER_CHARGES


@<TRIPOS>ATOM
      1 C1         -7.9844    2.9668   57.9931 C.3     1  ZINC000655982608   -0.1900
      2 C2         -7.1251    2.2906   56.9228 C.3     1  ZINC000655982608    0.0800
      3 H3         -7.3761    2.6990   55.9439 H       1  ZINC000655982608    0.1000
      4 C4         -5.6462    2.5476   57.2188 C.3     1  ZINC000655982608   -0.0300
      5 C5         -4.9120    2.8005   55.9273 C.2     1  ZINC000655982608    0.2000
      6 N6         -5.4471    2.9292   54.7371 N.2     1  ZINC000655982608   -0.4800
      7 C7         -4.4174    3.1411   53.8983 C.2     1  ZINC000655982608    0.1700
      8 C8         -4.5092    3.3524   52.4090 C.3     1  ZINC000655982608   -0.0100
      9 H9         -5.5443    3.5007   52.1011 H       1  ZINC000655982608    0.1300
     10 C10        -3.6238    4.5389   51.9628 C.3     1  ZINC000655982608   -0.1400
     11 C11        -3.0646    4.1026   50.6265 C.2     1  ZINC000655982608    0.5200
     12 O12        -2.5514    4.8418   49.8134 O.2     1  ZINC000655982608   -0.5000
     13 N13        -3.2189    2.7762   50.4717 N.am    1  ZINC000655982608   -0.5600
     14 C14        -2.8136    2.0612   49.3393 C.ar    1  ZINC000655982608    0.1600
     15 C15        -1.9367    0.9921   49.4684 C.ar    1  ZINC000655982608   -0.1600
     16 C16        -1.5384    0.2884   48.3487 C.ar    1  ZINC000655982608   -0.0900
     17 C17        -2.0115    0.6477   47.1000 C.ar    1  ZINC000655982608   -0.1400
     18 C18        -2.8843    1.7120   46.9680 C.ar    1  ZINC000655982608   -0.0900
     19 C19        -3.2916    2.4156   48.0845 C.ar    1  ZINC000655982608   -0.1600
     20 C20        -3.8679    2.1741   51.6429 C.3     1  ZINC000655982608    0.1100
     21 N21        -3.3289    3.1306   54.6079 N.2     1  ZINC000655982608   -0.3700
     22 O22        -3.5916    2.9422   55.7770 O.3     1  ZINC000655982608    0.0900
     23 N23        -7.3819    0.8443   56.9305 N.3     1  ZINC000655982608   -0.4700
     24 C24        -7.0402    0.2522   58.2421 C.3     1  ZINC000655982608    0.0300
     25 C25        -8.0418   -0.9200   58.3552 C.3     1  ZINC000655982608   -0.0800
     26 C26        -9.1893   -0.4687   57.4737 C.ar    1  ZINC000655982608   -0.1400
     27 C27       -10.4918   -0.9090   57.3708 C.ar    1  ZINC000655982608   -0.0800
     28 C28       -11.3567   -0.3114   56.4714 C.ar    1  ZINC000655982608   -0.1400
     29 C29       -10.9129    0.7288   55.6760 C.ar    1  ZINC000655982608   -0.0900
     30 C30        -9.6100    1.1717   55.7735 C.ar    1  ZINC000655982608   -0.1400
     31 C31        -8.7317    0.5728   56.6748 C.ar    1  ZINC000655982608    0.1000
     32 H32        -7.8784    4.0487   57.9140 H       1  ZINC000655982608    0.0700
     33 H33        -9.0291    2.6924   57.8471 H       1  ZINC000655982608    0.0700
     34 H34        -7.6577    2.6409   58.9806 H       1  ZINC000655982608    0.0700
     35 H35        -5.5514    3.4186   57.8673 H       1  ZINC000655982608    0.1200
     36 H36        -5.2184    1.6767   57.7154 H       1  ZINC000655982608    0.1100
     37 H37        -4.2244    5.4414   51.8486 H       1  ZINC000655982608    0.1200
     38 H38        -2.8180    4.7037   52.6780 H       1  ZINC000655982608    0.1200
     39 H39        -1.5662    0.7115   50.4433 H       1  ZINC000655982608    0.1200
     40 H40        -0.8566   -0.5431   48.4485 H       1  ZINC000655982608    0.1300
     41 H41        -1.6983    0.0959   46.2260 H       1  ZINC000655982608    0.1200
     42 H42        -3.2516    1.9905   45.9913 H       1  ZINC000655982608    0.1300
     43 H43        -3.9733    3.2468   47.9807 H       1  ZINC000655982608    0.1500
     44 H44        -3.1283    1.6756   52.2693 H       1  ZINC000655982608    0.0900
     45 H45        -4.6344    1.4664   51.3270 H       1  ZINC000655982608    0.1000
     46 H46        -6.0138   -0.1147   58.2451 H       1  ZINC000655982608    0.1000
     47 H47        -7.1966    0.9731   59.0444 H       1  ZINC000655982608    0.0700
     48 H48        -7.6020   -1.8418   57.9744 H       1  ZINC000655982608    0.0900
     49 H49        -8.3734   -1.0463   59.3858 H       1  ZINC000655982608    0.0800
     50 H50       -10.8371   -1.7216   57.9927 H       1  ZINC000655982608    0.1200
     51 H51       -12.3767   -0.6570   56.3906 H       1  ZINC000655982608    0.1200
     52 H52       -11.5887    1.1962   54.9753 H       1  ZINC000655982608    0.1300
     53 H53        -9.2693    1.9843   55.1491 H       1  ZINC000655982608    0.1200
@<TRIPOS>BOND
     1     1     2    1
     2     1    32    1
     3     1    33    1
     4     1    34    1
     5     2     3    1
     6     2     4    1
     7     2    23    1
     8     4     5    1
     9     4    35    1
    10     4    36    1
    11     5    22    1
    12     5     6    2
    13     6     7    1
    14     7     8    1
    15     7    21    2
    16     8     9    1
    17     8    20    1
    18     8    10    1
    19    10    11    1
    20    10    37    1
    21    10    38    1
    22    11    12    2
    23    11    13   am
    24    13    14    1
    25    13    20    1
    26    14    19   ar
    27    14    15   ar
    28    15    16   ar
    29    15    39    1
    30    16    17   ar
    31    16    40    1
    32    17    18   ar
    33    17    41    1
    34    18    19   ar
    35    18    42    1
    36    19    43    1
    37    20    44    1
    38    20    45    1
    39    21    22    1
    40    23    31    1
    41    23    24    1
    42    24    25    1
    43    24    46    1
    44    24    47    1
    45    25    26    1
    46    25    48    1
    47    25    49    1
    48    26    31   ar
    49    26    27   ar
    50    27    28   ar
    51    27    50    1
    52    28    29   ar
    53    28    51    1
    54    29    30   ar
    55    29    52    1
    56    30    31   ar
    57    30    53    1
@<TRIPOS>SUBSTRUCTURE
     1 ZINC000655982608        1 TEMP              0 ****  ****    0 ROOT


##########                                Name:    ZINC000962730513
##########                DOCK_Rotatable_Bonds:                   6
##########                         Heavy_Atoms:                  24
##########                    Molecular_Weight:             342.465
##########                DOCK_Rotatable_Bonds:                   6
##########                       Formal_Charge:         -0.00999998
##########                     HBond_Acceptors:                   6
##########                        HBond_Donors:                   1
##########                         Heavy_Atoms:                  24
##########                          Grid_Score:          -30.042732
##########                     Grid_vdw_energy:          -29.641933
##########                      Grid_es_energy:           -0.400798
##########           Internal_energy_repulsive:           13.314031

@<TRIPOS>MOLECULE
ZINC000962730513
 46 49 1 0 0
SMALL
USER_CHARGES


@<TRIPOS>ATOM
      1 C1        -13.4494    1.4156   51.7140 C.3     1  ZINC000962730513   -0.1400
      2 C2        -12.0097    1.2237   52.1949 C.3     1  ZINC000962730513   -0.0800
      3 C3        -11.9928    0.2711   53.3625 C.2     1  ZINC000962730513   -0.0100
      4 C4        -10.8431   -0.2138   53.9198 C.2     1  ZINC000962730513   -0.2800
      5 C5         -9.4827    0.1095   53.4799 C.2     1  ZINC000962730513    0.6000
      6 O6         -8.5563   -0.6202   53.7807 O.2     1  ZINC000962730513   -0.5200
      7 N7         -9.2579    1.2149   52.7423 N.am    1  ZINC000962730513   -0.7000
      8 C8         -7.8980    1.5390   52.3041 C.3     1  ZINC000962730513    0.1200
      9 H9         -7.2174    1.8672   53.0896 H       1  ZINC000962730513    0.1400
     10 C10        -7.7349    2.1709   50.9203 C.3     1  ZINC000962730513   -0.1700
     11 H11        -8.6206    2.4213   50.3363 H       1  ZINC000962730513    0.1200
     12 C12        -6.4391    2.9570   50.6273 C.3     1  ZINC000962730513    0.0700
     13 N13        -5.4796    1.9308   50.1446 N.3     1  ZINC000962730513   -0.5000
     14 C14        -4.0936    2.3953   50.2914 C.3     1  ZINC000962730513    0.1100
     15 C15        -3.2971    1.9911   49.0777 C.ar    1  ZINC000962730513    0.3200
     16 N16        -2.4258    1.0076   49.1807 N.ar    1  ZINC000962730513   -0.5100
     17 C17        -1.7085    0.6253   48.1364 C.ar    1  ZINC000962730513    0.1500
     18 C18        -1.8836    1.2740   46.9243 C.ar    1  ZINC000962730513   -0.1900
     19 C19        -1.0874    0.8695   45.7105 C.3     1  ZINC000962730513   -0.1100
     20 C20        -2.8090    2.3035   46.8552 C.ar    1  ZINC000962730513    0.1500
     21 N21        -3.4939    2.6271   47.9403 N.ar    1  ZINC000962730513   -0.5000
     22 C22        -5.7403    0.7516   51.0098 C.3     1  ZINC000962730513    0.0700
     23 C23        -7.3089    0.7094   51.1616 C.3     1  ZINC000962730513   -0.1700
     24 H24        -7.8343   -0.1473   50.7397 H       1  ZINC000962730513    0.1300
     25 S25       -11.2571   -1.2872   55.2495 S.3     1  ZINC000962730513    0.1900
     26 C26       -12.9253   -1.0355   54.9948 C.2     1  ZINC000962730513   -0.2200
     27 C27       -13.1321   -0.1920   53.9766 C.2     1  ZINC000962730513   -0.1500
     28 H28       -13.8603    0.4545   51.4046 H       1  ZINC000962730513    0.0600
     29 H29       -14.0520    1.8242   52.5251 H       1  ZINC000962730513    0.0500
     30 H30       -13.4617    2.1046   50.8695 H       1  ZINC000962730513    0.0600
     31 H31       -11.4071    0.8151   51.3837 H       1  ZINC000962730513    0.1000
     32 H32       -11.5988    2.1848   52.5042 H       1  ZINC000962730513    0.0700
     33 H33        -9.9965    1.7958   52.5017 H       1  ZINC000962730513    0.4000
     34 H34        -6.6151    3.7060   49.8551 H       1  ZINC000962730513    0.0900
     35 H35        -6.0663    3.4280   51.5369 H       1  ZINC000962730513    0.0500
     36 H36        -4.0827    3.4810   50.3883 H       1  ZINC000962730513    0.1000
     37 H37        -3.6525    1.9467   51.1815 H       1  ZINC000962730513    0.0700
     38 H38        -0.9961   -0.1813   48.2276 H       1  ZINC000962730513    0.1700
     39 H39        -1.6274    0.0974   45.1625 H       1  ZINC000962730513    0.0800
     40 H40        -0.9406    1.7368   45.0667 H       1  ZINC000962730513    0.0700
     41 H41        -0.1182    0.4819   46.0243 H       1  ZINC000962730513    0.0700
     42 H42        -2.9717    2.8319   45.9275 H       1  ZINC000962730513    0.1700
     43 H43        -5.3903   -0.1600   50.5256 H       1  ZINC000962730513    0.0800
     44 H44        -5.2582    0.8775   51.9792 H       1  ZINC000962730513    0.0600
     45 H45       -13.7096   -1.4926   55.5798 H       1  ZINC000962730513    0.1700
     46 H46       -14.1218    0.0972   53.6556 H       1  ZINC000962730513    0.1500
@<TRIPOS>BOND
     1     1     2    1
     2     1    28    1
     3     1    29    1
     4     1    30    1
     5     2     3    1
     6     2    31    1
     7     2    32    1
     8     3    27    1
     9     3     4    2
    10     4     5    1
    11     4    25    1
    12     5     6    2
    13     5     7   am
    14     7     8    1
    15     7    33    1
    16     8     9    1
    17     8    23    1
    18     8    10    1
    19    10    11    1
    20    10    23    1
    21    10    12    1
    22    12    13    1
    23    12    34    1
    24    12    35    1
    25    13    14    1
    26    13    22    1
    27    14    15    1
    28    14    36    1
    29    14    37    1
    30    15    21   ar
    31    15    16   ar
    32    16    17   ar
    33    17    18   ar
    34    17    38    1
    35    18    19    1
    36    18    20   ar
    37    19    39    1
    38    19    40    1
    39    19    41    1
    40    20    21   ar
    41    20    42    1
    42    22    23    1
    43    22    43    1
    44    22    44    1
    45    23    24    1
    46    25    26    1
    47    26    27    2
    48    26    45    1
    49    27    46    1
@<TRIPOS>SUBSTRUCTURE
     1 ZINC000962730513        1 TEMP              0 ****  ****    0 ROOT


##########                                Name:    ZINC000504243286
##########                DOCK_Rotatable_Bonds:                   7
##########                         Heavy_Atoms:                  29
##########                    Molecular_Weight:             408.337
##########                DOCK_Rotatable_Bonds:                   7
##########                       Formal_Charge:           0.0299994
##########                     HBond_Acceptors:                  11
##########                        HBond_Donors:                   3
##########                         Heavy_Atoms:                  29
##########                          Grid_Score:          -30.040014
##########                     Grid_vdw_energy:          -28.521004
##########                      Grid_es_energy:           -1.519011
##########           Internal_energy_repulsive:            9.787301

@<TRIPOS>MOLECULE
ZINC000504243286
 44 46 1 0 0
SMALL
USER_CHARGES


@<TRIPOS>ATOM
      1 O1         -8.1586    1.0064   54.1081 O.2     1  ZINC000504243286   -0.5200
      2 C2         -9.1738    1.4838   54.5692 C.2     1  ZINC000504243286    0.5200
      3 C3         -9.9598    2.4945   53.7743 C.3     1  ZINC000504243286   -0.1600
      4 C4         -8.9990    3.4968   53.1317 C.3     1  ZINC000504243286    0.1300
      5 N5         -8.8406    3.1791   51.7104 N.pl3   1  ZINC000504243286   -0.7200
      6 C6         -7.5642    3.1184   51.1463 C.ar    1  ZINC000504243286    0.3100
      7 C7         -6.9241    1.8941   51.0034 C.ar    1  ZINC000504243286   -0.1900
      8 C8         -5.6621    1.8375   50.4448 C.ar    1  ZINC000504243286    0.0200
      9 C9         -5.0361    2.9978   50.0281 C.ar    1  ZINC000504243286   -0.2400
     10 C10        -3.6595    2.9321   49.4186 C.3     1  ZINC000504243286    0.5200
     11 F11        -3.7662    2.9380   48.0237 F       1  ZINC000504243286   -0.1700
     12 F12        -2.9122    4.0394   49.8339 F       1  ZINC000504243286   -0.1700
     13 F13        -3.0219    1.7575   49.8325 F       1  ZINC000504243286   -0.1700
     14 C14        -5.6708    4.2185   50.1689 C.ar    1  ZINC000504243286    0.0400
     15 C15        -6.9346    4.2817   50.7217 C.ar    1  ZINC000504243286   -0.1200
     16 N16        -7.6129    5.5885   50.8721 N.pl3   1  ZINC000504243286    0.0400
     17 O17        -8.8140    5.6758   50.6895 O.2     1  ZINC000504243286   -0.1700
     18 O18        -6.9702    6.5767   51.1784 O.2     1  ZINC000504243286   -0.1400
     19 N19        -9.6018    1.1063   55.7901 N.am    1  ZINC000504243286   -0.6700
     20 C20        -8.8712    0.1669   56.5290 C.ar    1  ZINC000504243286    0.1200
     21 C21        -7.7332    0.5572   57.2222 C.ar    1  ZINC000504243286   -0.1000
     22 C22        -7.0120   -0.3651   57.9509 C.ar    1  ZINC000504243286   -0.1200
     23 C23        -7.4198   -1.6968   57.9965 C.ar    1  ZINC000504243286    0.1300
     24 N24        -6.8650   -2.7985   58.6524 N.am    1  ZINC000504243286   -0.6600
     25 C25        -7.5688   -3.9233   58.4410 C.2     1  ZINC000504243286    0.5300
     26 O26        -7.3187   -5.0237   58.8856 O.2     1  ZINC000504243286   -0.5000
     27 C27        -8.7327   -3.5593   57.5441 C.3     1  ZINC000504243286   -0.1200
     28 C28        -8.5599   -2.0779   57.2995 C.ar    1  ZINC000504243286   -0.1200
     29 C29        -9.2851   -1.1594   56.5762 C.ar    1  ZINC000504243286   -0.0600
     30 H30       -10.5260    1.9834   52.9957 H       1  ZINC000504243286    0.1100
     31 H31       -10.6466    3.0224   54.4359 H       1  ZINC000504243286    0.1100
     32 H32        -9.4015    4.5043   53.2361 H       1  ZINC000504243286    0.0800
     33 H33        -8.0297    3.4397   53.6270 H       1  ZINC000504243286    0.0900
     34 H34        -9.6220    3.0110   51.1610 H       1  ZINC000504243286    0.4100
     35 H35        -7.4123    0.9875   51.3289 H       1  ZINC000504243286    0.1600
     36 H36        -5.1635    0.8859   50.3336 H       1  ZINC000504243286    0.1600
     37 H37        -5.1790    5.1231   49.8425 H       1  ZINC000504243286    0.1600
     38 H38       -10.4159    1.4850   56.1572 H       1  ZINC000504243286    0.4200
     39 H39        -7.4112    1.5875   57.1904 H       1  ZINC000504243286    0.1400
     40 H40        -6.1279   -0.0544   58.4877 H       1  ZINC000504243286    0.1300
     41 H41        -6.0639   -2.7562   59.1977 H       1  ZINC000504243286    0.4100
     42 H42        -8.6781   -4.1103   56.6052 H       1  ZINC000504243286    0.1300
     43 H43        -9.6790   -3.7553   58.0483 H       1  ZINC000504243286    0.1300
     44 H44       -10.1721   -1.4687   56.0434 H       1  ZINC000504243286    0.1500
@<TRIPOS>BOND
     1     1     2    2
     2     2     3    1
     3     2    19   am
     4     3     4    1
     5     3    30    1
     6     3    31    1
     7     4     5    1
     8     4    32    1
     9     4    33    1
    10     5     6    1
    11     5    34    1
    12     6    15   ar
    13     6     7   ar
    14     7     8   ar
    15     7    35    1
    16     8     9   ar
    17     8    36    1
    18     9    10    1
    19     9    14   ar
    20    10    11    1
    21    10    12    1
    22    10    13    1
    23    14    15   ar
    24    14    37    1
    25    15    16    1
    26    16    17    2
    27    16    18    2
    28    19    20    1
    29    19    38    1
    30    20    29   ar
    31    20    21   ar
    32    21    22   ar
    33    21    39    1
    34    22    23   ar
    35    22    40    1
    36    23    28   ar
    37    23    24    1
    38    24    25   am
    39    24    41    1
    40    25    26    2
    41    25    27    1
    42    27    28    1
    43    27    42    1
    44    27    43    1
    45    28    29   ar
    46    29    44    1
@<TRIPOS>SUBSTRUCTURE
     1 ZINC000504243286        1 TEMP              0 ****  ****    0 ROOT


##########                                Name:    ZINC000918875053
##########                DOCK_Rotatable_Bonds:                   6
##########                         Heavy_Atoms:                  26
##########                    Molecular_Weight:             359.357
##########                DOCK_Rotatable_Bonds:                   6
##########                       Formal_Charge:           0.0200003
##########                     HBond_Acceptors:                   8
##########                        HBond_Donors:                   0
##########                         Heavy_Atoms:                  26
##########                          Grid_Score:          -30.036840
##########                     Grid_vdw_energy:          -27.811136
##########                      Grid_es_energy:           -2.225705
##########           Internal_energy_repulsive:            6.713688

@<TRIPOS>MOLECULE
ZINC000918875053
 44 47 1 0 0
SMALL
USER_CHARGES


@<TRIPOS>ATOM
      1 C1        -13.2297    1.3291   59.9945 C.3     1  ZINC000918875053   -0.1700
      2 C2        -14.1540    0.4701   60.8598 C.3     1  ZINC000918875053    0.1900
      3 H3        -15.1833    0.5901   60.5218 H       1  ZINC000918875053    0.1400
      4 O4        -13.7664   -0.9245   60.7454 O.3     1  ZINC000918875053   -0.3400
      5 C5        -14.0495   -1.5426   59.5879 C.2     1  ZINC000918875053    0.4800
      6 O6        -15.0058   -1.1958   58.9360 O.2     1  ZINC000918875053   -0.4900
      7 C7        -13.1746   -2.6691   59.1017 C.3     1  ZINC000918875053   -0.0900
      8 H8        -13.5094   -3.6236   59.5079 H       1  ZINC000918875053    0.1400
      9 C9        -13.1325   -2.7097   57.5565 C.3     1  ZINC000918875053   -0.1400
     10 C10       -11.7077   -3.1032   57.2345 C.2     1  ZINC000918875053    0.5300
     11 O11       -11.3269   -3.5151   56.1591 O.2     1  ZINC000918875053   -0.5000
     12 N12       -10.9250   -2.9297   58.3134 N.am    1  ZINC000918875053   -0.5800
     13 C13        -9.5534   -3.2105   58.3480 C.ar    1  ZINC000918875053    0.1000
     14 C14        -9.1148   -4.5214   58.4700 C.ar    1  ZINC000918875053   -0.0800
     15 C15        -7.7609   -4.7957   58.5035 C.ar    1  ZINC000918875053   -0.1200
     16 C16        -6.8423   -3.7663   58.4161 C.ar    1  ZINC000918875053   -0.0800
     17 C17        -7.2744   -2.4581   58.2943 C.ar    1  ZINC000918875053   -0.1500
     18 C18        -8.6276   -2.1767   58.2544 C.ar    1  ZINC000918875053    0.1100
     19 F19        -9.0498   -0.8990   58.1350 F       1  ZINC000918875053   -0.1300
     20 C20       -11.6927   -2.4087   59.4514 C.3     1  ZINC000918875053    0.1200
     21 C21       -14.0436    0.9057   62.2983 C.2     1  ZINC000918875053    0.1800
     22 N22       -14.9943    0.8688   63.2006 N.2     1  ZINC000918875053   -0.4600
     23 C23       -14.4424    1.3517   64.3280 C.2     1  ZINC000918875053    0.2100
     24 C24       -15.1301    1.5142   65.6591 C.3     1  ZINC000918875053   -0.0900
     25 C25       -14.3193    1.1953   66.9168 C.3     1  ZINC000918875053   -0.1600
     26 C26       -14.6510    2.6477   66.5682 C.3     1  ZINC000918875053   -0.1500
     27 N27       -13.2072    1.6522   64.0588 N.2     1  ZINC000918875053   -0.3700
     28 O28       -12.9564    1.3981   62.8995 O.3     1  ZINC000918875053    0.1000
     29 H29       -13.3095    1.0141   58.9541 H       1  ZINC000918875053    0.0900
     30 H30       -13.5207    2.3760   60.0805 H       1  ZINC000918875053    0.0900
     31 H31       -12.2004    1.2092   60.3325 H       1  ZINC000918875053    0.0800
     32 H32       -13.8298   -3.4558   57.1753 H       1  ZINC000918875053    0.1300
     33 H33       -13.3597   -1.7272   57.1427 H       1  ZINC000918875053    0.1100
     34 H34        -9.8312   -5.3267   58.5392 H       1  ZINC000918875053    0.1400
     35 H35        -7.4198   -5.8161   58.5985 H       1  ZINC000918875053    0.1400
     36 H36        -5.7850   -3.9841   58.4432 H       1  ZINC000918875053    0.1400
     37 H37        -6.5543   -1.6562   58.2262 H       1  ZINC000918875053    0.1400
     38 H38       -11.5155   -1.3395   59.5681 H       1  ZINC000918875053    0.1000
     39 H39       -11.4206   -2.9387   60.3641 H       1  ZINC000918875053    0.1000
     40 H40       -16.1934    1.2745   65.6712 H       1  ZINC000918875053    0.1400
     41 H41       -14.8490    0.7457   67.7566 H       1  ZINC000918875053    0.1100
     42 H42       -13.2884    0.8681   66.7814 H       1  ZINC000918875053    0.1000
     43 H43       -13.8384    3.2760   66.2034 H       1  ZINC000918875053    0.1000
     44 H44       -15.3990    3.1535   67.1787 H       1  ZINC000918875053    0.1100
@<TRIPOS>BOND
     1     1     2    1
     2     1    29    1
     3     1    30    1
     4     1    31    1
     5     2     3    1
     6     2     4    1
     7     2    21    1
     8     4     5    1
     9     5     6    2
    10     5     7    1
    11     7     8    1
    12     7    20    1
    13     7     9    1
    14     9    10    1
    15     9    32    1
    16     9    33    1
    17    10    11    2
    18    10    12   am
    19    12    13    1
    20    12    20    1
    21    13    18   ar
    22    13    14   ar
    23    14    15   ar
    24    14    34    1
    25    15    16   ar
    26    15    35    1
    27    16    17   ar
    28    16    36    1
    29    17    18   ar
    30    17    37    1
    31    18    19    1
    32    20    38    1
    33    20    39    1
    34    21    28    1
    35    21    22    2
    36    22    23    1
    37    23    24    1
    38    23    27    2
    39    24    26    1
    40    24    25    1
    41    24    40    1
    42    25    26    1
    43    25    41    1
    44    25    42    1
    45    26    43    1
    46    26    44    1
    47    27    28    1
@<TRIPOS>SUBSTRUCTURE
     1 ZINC000918875053        1 TEMP              0 ****  ****    0 ROOT


##########                                Name:    ZINC000847397179
##########                DOCK_Rotatable_Bonds:                   9
##########                         Heavy_Atoms:                  25
##########                    Molecular_Weight:             350.461
##########                DOCK_Rotatable_Bonds:                   9
##########                       Formal_Charge:          0.00999979
##########                     HBond_Acceptors:                   7
##########                        HBond_Donors:                   2
##########                         Heavy_Atoms:                  25
##########                          Grid_Score:          -30.033953
##########                     Grid_vdw_energy:          -29.468094
##########                      Grid_es_energy:           -0.565858
##########           Internal_energy_repulsive:           83.495148

@<TRIPOS>MOLECULE
ZINC000847397179
 55 56 1 0 0
SMALL
USER_CHARGES


@<TRIPOS>ATOM
      1 C1         -7.6963    5.2978   50.9554 C.3     1  ZINC000847397179   -0.1500
      2 C2         -7.7182    3.7750   50.8098 C.3     1  ZINC000847397179   -0.1000
      3 H3         -8.6233    3.4733   50.2827 H       1  ZINC000847397179    0.0900
      4 C4         -7.6969    3.1297   52.1969 C.3     1  ZINC000847397179   -0.0200
      5 C5         -8.0911    1.6797   52.0825 C.2     1  ZINC000847397179    0.0100
      6 C6         -7.2726    0.6602   51.7600 C.2     1  ZINC000847397179   -0.0500
      7 N7         -8.0337   -0.4775   51.7710 N.pl3   1  ZINC000847397179   -0.5700
      8 C8         -9.2917   -0.1133   52.1001 C.2     1  ZINC000847397179    0.1800
      9 N9         -9.3174    1.1776   52.2898 N.2     1  ZINC000847397179   -0.4900
     10 C10        -6.5093    3.3276   50.0291 C.2     1  ZINC000847397179    0.5200
     11 O11        -6.6103    2.4364   49.2128 O.2     1  ZINC000847397179   -0.5300
     12 N12        -5.3159    3.9181   50.2379 N.am    1  ZINC000847397179   -0.7400
     13 C13        -4.1403    3.4820   49.4802 C.3     1  ZINC000847397179    0.1200
     14 C14        -2.8720    3.9856   50.1721 C.3     1  ZINC000847397179    0.1500
     15 H15        -2.8352    5.0737   50.1209 H       1  ZINC000847397179    0.0800
     16 C16        -2.8754    3.5403   51.6379 C.3     1  ZINC000847397179   -0.1300
     17 C17        -1.5442    3.9255   52.2871 C.3     1  ZINC000847397179   -0.1200
     18 C18        -0.3981    3.2106   51.5677 C.3     1  ZINC000847397179   -0.1400
     19 C19        -0.3665    3.6522   50.1012 C.3     1  ZINC000847397179    0.1100
     20 N20        -1.6903    3.4209   49.5061 N.am    1  ZINC000847397179   -0.5900
     21 C21        -1.8181    2.7006   48.3743 C.2     1  ZINC000847397179    0.6500
     22 O22        -2.9182    2.5164   47.8923 O.2     1  ZINC000847397179   -0.5500
     23 O23        -0.7268    2.1849   47.7777 O.3     1  ZINC000847397179   -0.3600
     24 C24        -0.6861    0.7431   47.6106 C.3     1  ZINC000847397179    0.1400
     25 C25        -1.3022    0.0697   48.8385 C.3     1  ZINC000847397179   -0.1800
     26 C26        -1.4795    0.3517   46.3624 C.3     1  ZINC000847397179   -0.1400
     27 C27         0.7666    0.2887   47.4548 C.3     1  ZINC000847397179   -0.1800
     28 H28        -6.7913    5.5996   51.4826 H       1  ZINC000847397179    0.0500
     29 H29        -7.7115    5.7576   49.9671 H       1  ZINC000847397179    0.0500
     30 H30        -8.5707    5.6214   51.5201 H       1  ZINC000847397179    0.1000
     31 H31        -6.6931    3.2014   52.6157 H       1  ZINC000847397179    0.0800
     32 H32        -8.4004    3.6472   52.8492 H       1  ZINC000847397179    0.0800
     33 H33        -6.2183    0.7272   51.5354 H       1  ZINC000847397179    0.1800
     34 H34        -7.7267   -1.3773   51.5783 H       1  ZINC000847397179    0.4200
     35 H35       -10.1358   -0.7804   52.1947 H       1  ZINC000847397179    0.2100
     36 H36        -5.2354    4.6317   50.8899 H       1  ZINC000847397179    0.3900
     37 H37        -4.1212    2.3933   49.4339 H       1  ZINC000847397179    0.0800
     38 H38        -4.1884    3.8878   48.4697 H       1  ZINC000847397179    0.1000
     39 H39        -3.6931    4.0315   52.1655 H       1  ZINC000847397179    0.0800
     40 H40        -3.0059    2.4593   51.6895 H       1  ZINC000847397179    0.0700
     41 H41        -1.4027    5.0038   52.2132 H       1  ZINC000847397179    0.0700
     42 H42        -1.5535    3.6318   53.3367 H       1  ZINC000847397179    0.0700
     43 H43         0.5476    3.4670   52.0453 H       1  ZINC000847397179    0.0800
     44 H44        -0.5519    2.1327   51.6199 H       1  ZINC000847397179    0.0700
     45 H45        -0.1230    4.7130   50.0441 H       1  ZINC000847397179    0.0700
     46 H46         0.3829    3.0734   49.5613 H       1  ZINC000847397179    0.0900
     47 H47        -2.3371    0.3934   48.9496 H       1  ZINC000847397179    0.0600
     48 H48        -1.2715   -1.0126   48.7131 H       1  ZINC000847397179    0.0700
     49 H49        -0.7369    0.3486   49.7278 H       1  ZINC000847397179    0.0900
     50 H50        -1.0405    0.8314   45.4875 H       1  ZINC000847397179    0.0700
     51 H51        -1.4488   -0.7306   46.2370 H       1  ZINC000847397179    0.0800
     52 H52        -2.5144    0.6754   46.4733 H       1  ZINC000847397179    0.0700
     53 H53         1.3319    0.5675   48.3442 H       1  ZINC000847397179    0.0900
     54 H54         0.7973   -0.7937   47.3295 H       1  ZINC000847397179    0.0700
     55 H55         1.2055    0.7684   46.5801 H       1  ZINC000847397179    0.0600
@<TRIPOS>BOND
     1     1     2    1
     2     1    28    1
     3     1    29    1
     4     1    30    1
     5     2     3    1
     6     2     4    1
     7     2    10    1
     8     4     5    1
     9     4    31    1
    10     4    32    1
    11     5     9    1
    12     5     6    2
    13     6     7    1
    14     6    33    1
    15     7     8    1
    16     7    34    1
    17     8     9    2
    18     8    35    1
    19    10    11    2
    20    10    12   am
    21    12    13    1
    22    12    36    1
    23    13    14    1
    24    13    37    1
    25    13    38    1
    26    14    15    1
    27    14    20    1
    28    14    16    1
    29    16    17    1
    30    16    39    1
    31    16    40    1
    32    17    18    1
    33    17    41    1
    34    17    42    1
    35    18    19    1
    36    18    43    1
    37    18    44    1
    38    19    20    1
    39    19    45    1
    40    19    46    1
    41    20    21   am
    42    21    22    2
    43    21    23    1
    44    23    24    1
    45    24    25    1
    46    24    26    1
    47    24    27    1
    48    25    47    1
    49    25    48    1
    50    25    49    1
    51    26    50    1
    52    26    51    1
    53    26    52    1
    54    27    53    1
    55    27    54    1
    56    27    55    1
@<TRIPOS>SUBSTRUCTURE
     1 ZINC000847397179        1 TEMP              0 ****  ****    0 ROOT


##########                                Name:    ZINC001193456967
##########                DOCK_Rotatable_Bonds:                   3
##########                         Heavy_Atoms:                  27
##########                    Molecular_Weight:             392.451
##########                DOCK_Rotatable_Bonds:                   3
##########                       Formal_Charge:           0.0300002
##########                     HBond_Acceptors:                   8
##########                        HBond_Donors:                   0
##########                         Heavy_Atoms:                  27
##########                          Grid_Score:          -30.021261
##########                     Grid_vdw_energy:          -28.265882
##########                      Grid_es_energy:           -1.755379
##########           Internal_energy_repulsive:           36.932789

@<TRIPOS>MOLECULE
ZINC001193456967
 48 50 1 0 0
SMALL
USER_CHARGES


@<TRIPOS>ATOM
      1 C1          0.2107    0.6020   47.5715 C.3     1  ZINC001193456967   -0.1400
      2 C2         -1.0820    1.0128   48.2280 C.ar    1  ZINC001193456967    0.0300
      3 C3         -1.2859    0.7597   49.5715 C.ar    1  ZINC001193456967   -0.1400
      4 C4         -2.4719    1.1365   50.1737 C.ar    1  ZINC001193456967    0.0300
      5 C5         -3.4535    1.7668   49.4326 C.ar    1  ZINC001193456967   -0.6900
      6 S6         -4.9654    2.2466   50.1999 S.o2    1  ZINC001193456967    2.7100
      7 O7         -5.7948    2.7595   49.1665 O.2     1  ZINC001193456967   -0.9300
      8 O8         -5.3489    1.1670   51.0406 O.2     1  ZINC001193456967   -0.9400
      9 N9         -4.6240    3.5206   51.2014 N.am    1  ZINC001193456967   -1.0000
     10 C10        -4.0557    4.8147   50.7824 C.3     1  ZINC001193456967    0.1100
     11 C11        -3.3703    5.3768   52.0528 C.3     1  ZINC001193456967   -0.1200
     12 C12        -4.3533    4.9226   53.1639 C.3     1  ZINC001193456967   -0.0500
     13 H13        -5.1876    5.6189   53.2490 H       1  ZINC001193456967    0.1000
     14 C14        -3.6394    4.7852   54.4839 C.ar    1  ZINC001193456967   -0.0800
     15 C15        -2.3415    4.3103   54.5211 C.ar    1  ZINC001193456967   -0.0800
     16 C16        -1.6859    4.1839   55.7310 C.ar    1  ZINC001193456967   -0.1500
     17 C17        -2.3290    4.5335   56.9062 C.ar    1  ZINC001193456967    0.1000
     18 F18        -1.6888    4.4107   58.0896 F       1  ZINC001193456967   -0.1400
     19 C19        -3.6287    5.0093   56.8677 C.ar    1  ZINC001193456967   -0.1500
     20 C20        -4.2807    5.1395   55.6562 C.ar    1  ZINC001193456967   -0.0800
     21 C21        -4.8437    3.5506   52.6548 C.3     1  ZINC001193456967    0.1900
     22 C22        -6.3320    3.3815   52.9669 C.3     1  ZINC001193456967   -0.1800
     23 C23        -4.0393    2.4314   53.3189 C.3     1  ZINC001193456967   -0.1800
     24 C24        -3.2492    2.0213   48.0890 C.ar    1  ZINC001193456967    0.0400
     25 C25        -2.0619    1.6480   47.4878 C.ar    1  ZINC001193456967   -0.0600
     26 N26        -1.8430    1.9203   46.0495 N.pl3   1  ZINC001193456967    0.0200
     27 O27        -0.7395    2.2498   45.6531 O.2     1  ZINC001193456967   -0.1400
     28 O28        -2.7665    1.8149   45.2623 O.2     1  ZINC001193456967   -0.1500
     29 H29         0.8987    1.4474   47.5632 H       1  ZINC001193456967    0.1100
     30 H30         0.6553   -0.2225   48.1288 H       1  ZINC001193456967    0.0900
     31 H31         0.0134    0.2840   46.5478 H       1  ZINC001193456967    0.0800
     32 H32        -0.5188    0.2672   50.1506 H       1  ZINC001193456967    0.1600
     33 H33        -2.6315    0.9382   51.2233 H       1  ZINC001193456967    0.1600
     34 H34        -3.3225    4.6680   49.9892 H       1  ZINC001193456967    0.0900
     35 H35        -4.8467    5.4865   50.4493 H       1  ZINC001193456967    0.0700
     36 H36        -2.3860    4.9306   52.1957 H       1  ZINC001193456967    0.0900
     37 H37        -3.3024    6.4639   52.0116 H       1  ZINC001193456967    0.0900
     38 H38        -1.8401    4.0377   53.6042 H       1  ZINC001193456967    0.1400
     39 H39        -0.6722    3.8123   55.7598 H       1  ZINC001193456967    0.1400
     40 H40        -4.1315    5.2820   57.7839 H       1  ZINC001193456967    0.1400
     41 H41        -5.2944    5.5110   55.6259 H       1  ZINC001193456967    0.1300
     42 H42        -6.8986    4.1714   52.4740 H       1  ZINC001193456967    0.0700
     43 H43        -6.6710    2.4109   52.6047 H       1  ZINC001193456967    0.0600
     44 H44        -6.4863    3.4414   54.0442 H       1  ZINC001193456967    0.0800
     45 H45        -4.0829    2.5460   54.4020 H       1  ZINC001193456967    0.0800
     46 H46        -4.4602    1.4658   53.0386 H       1  ZINC001193456967    0.0900
     47 H47        -3.0017    2.4849   52.9893 H       1  ZINC001193456967    0.0700
     48 H48        -4.0161    2.5141   47.5100 H       1  ZINC001193456967    0.1600
@<TRIPOS>BOND
     1     1     2    1
     2     1    29    1
     3     1    30    1
     4     1    31    1
     5     2    25   ar
     6     2     3   ar
     7     3     4   ar
     8     3    32    1
     9     4     5   ar
    10     4    33    1
    11     5     6    1
    12     5    24   ar
    13     6     7    2
    14     6     8    2
    15     6     9   am
    16     9    21    1
    17     9    10    1
    18    10    11    1
    19    10    34    1
    20    10    35    1
    21    11    12    1
    22    11    36    1
    23    11    37    1
    24    12    13    1
    25    12    14    1
    26    12    21    1
    27    14    20   ar
    28    14    15   ar
    29    15    16   ar
    30    15    38    1
    31    16    17   ar
    32    16    39    1
    33    17    18    1
    34    17    19   ar
    35    19    20   ar
    36    19    40    1
    37    20    41    1
    38    21    22    1
    39    21    23    1
    40    22    42    1
    41    22    43    1
    42    22    44    1
    43    23    45    1
    44    23    46    1
    45    23    47    1
    46    24    25   ar
    47    24    48    1
    48    25    26    1
    49    26    27    2
    50    26    28    2
@<TRIPOS>SUBSTRUCTURE
     1 ZINC001193456967        1 TEMP              0 ****  ****    0 ROOT


##########                                Name:    ZINC000182378855
##########                DOCK_Rotatable_Bonds:                   8
##########                         Heavy_Atoms:                  27
##########                    Molecular_Weight:              394.83
##########                DOCK_Rotatable_Bonds:                   8
##########                       Formal_Charge:          -0.0200001
##########                     HBond_Acceptors:                   8
##########                        HBond_Donors:                   1
##########                         Heavy_Atoms:                  27
##########                          Grid_Score:          -30.007532
##########                     Grid_vdw_energy:          -28.390099
##########                      Grid_es_energy:           -1.617434
##########           Internal_energy_repulsive:           13.957143

@<TRIPOS>MOLECULE
ZINC000182378855
 47 49 1 0 0
SMALL
USER_CHARGES


@<TRIPOS>ATOM
      1 C1        -13.5114    1.6301   64.4825 C.3     1  ZINC000182378855    0.0300
      2 O2        -13.2699    0.7205   63.4071 O.3     1  ZINC000182378855   -0.3900
      3 C3        -12.7914    1.3448   62.2141 C.3     1  ZINC000182378855    0.0600
      4 C4        -12.5154    0.2761   61.1546 C.3     1  ZINC000182378855    0.0700
      5 O5        -13.7251   -0.4246   60.8583 O.3     1  ZINC000182378855   -0.2900
      6 C6        -13.6748   -1.3479   59.8653 C.ar    1  ZINC000182378855    0.3300
      7 C7        -12.4508   -1.6854   59.3033 C.ar    1  ZINC000182378855   -0.1300
      8 C8        -12.4154   -2.6372   58.2825 C.ar    1  ZINC000182378855   -0.0600
      9 C9        -11.1330   -3.0299   57.6528 C.2     1  ZINC000182378855    0.5600
     10 O10       -11.1333   -3.7258   56.6567 O.2     1  ZINC000182378855   -0.5200
     11 N11        -9.9662   -2.6152   58.1847 N.am    1  ZINC000182378855   -0.7100
     12 C12        -8.6981   -3.0049   57.5631 C.3     1  ZINC000182378855    0.1200
     13 H13        -8.7839   -2.9830   56.4768 H       1  ZINC000182378855    0.1100
     14 C14        -8.2684   -4.4090   58.0442 C.3     1  ZINC000182378855   -0.1700
     15 C15        -6.9172   -4.1658   58.7524 C.3     1  ZINC000182378855    0.0400
     16 O16        -6.9532   -2.7776   59.1492 O.3     1  ZINC000182378855   -0.3600
     17 C17        -7.5558   -2.0796   58.0377 C.3     1  ZINC000182378855    0.1100
     18 H18        -6.8273   -1.9363   57.2396 H       1  ZINC000182378855    0.1000
     19 C19        -8.1089   -0.7525   58.4893 C.ar    1  ZINC000182378855   -0.0500
     20 C20        -7.9963   -0.3719   59.8133 C.ar    1  ZINC000182378855   -0.1100
     21 C21        -8.4982    0.8477   60.2284 C.ar    1  ZINC000182378855   -0.0800
     22 C22        -9.1234    1.6833   59.3212 C.ar    1  ZINC000182378855   -0.0700
     23 Cl23       -9.7593    3.2119   59.8433 Cl      1  ZINC000182378855   -0.0400
     24 C24        -9.2416    1.2997   57.9947 C.ar    1  ZINC000182378855    0.1200
     25 F25        -9.8518    2.1150   57.1068 F       1  ZINC000182378855   -0.1200
     26 C26        -8.7335    0.0809   57.5802 C.ar    1  ZINC000182378855   -0.1300
     27 C27       -13.6235   -3.2106   57.8704 C.ar    1  ZINC000182378855   -0.1900
     28 C28       -14.7967   -2.8183   58.4824 C.ar    1  ZINC000182378855    0.1400
     29 N29       -14.7911   -1.9198   59.4477 N.ar    1  ZINC000182378855   -0.5200
     30 H30       -14.2610    2.3608   64.1788 H       1  ZINC000182378855    0.0400
     31 H31       -13.8722    1.0786   65.3506 H       1  ZINC000182378855    0.0900
     32 H32       -12.5851    2.1445   64.7381 H       1  ZINC000182378855    0.0400
     33 H33       -13.5433    2.0404   61.8412 H       1  ZINC000182378855    0.0600
     34 H34       -11.8711    1.8869   62.4317 H       1  ZINC000182378855    0.0700
     35 H35       -12.1395    0.7513   60.2484 H       1  ZINC000182378855    0.0800
     36 H36       -11.7719   -0.4261   61.5318 H       1  ZINC000182378855    0.0800
     37 H37       -11.5406   -1.2189   59.6502 H       1  ZINC000182378855    0.1600
     38 H38        -9.9660   -2.0587   58.9792 H       1  ZINC000182378855    0.4000
     39 H39        -8.9995   -4.8130   58.7444 H       1  ZINC000182378855    0.0900
     40 H40        -8.1393   -5.0805   57.1954 H       1  ZINC000182378855    0.0900
     41 H41        -6.8268   -4.8085   59.6280 H       1  ZINC000182378855    0.1000
     42 H42        -6.0908   -4.3443   58.0646 H       1  ZINC000182378855    0.0700
     43 H43        -7.5124   -1.0261   60.5234 H       1  ZINC000182378855    0.1500
     44 H44        -8.4057    1.1459   61.2622 H       1  ZINC000182378855    0.1500
     45 H45        -8.8246   -0.2190   56.5466 H       1  ZINC000182378855    0.1500
     46 H46       -13.6375   -3.9506   57.0839 H       1  ZINC000182378855    0.1400
     47 H47       -15.7326   -3.2569   58.1691 H       1  ZINC000182378855    0.1700
@<TRIPOS>BOND
     1     1     2    1
     2     1    30    1
     3     1    31    1
     4     1    32    1
     5     2     3    1
     6     3     4    1
     7     3    33    1
     8     3    34    1
     9     4     5    1
    10     4    35    1
    11     4    36    1
    12     5     6    1
    13     6    29   ar
    14     6     7   ar
    15     7     8   ar
    16     7    37    1
    17     8     9    1
    18     8    27   ar
    19     9    10    2
    20     9    11   am
    21    11    12    1
    22    11    38    1
    23    12    13    1
    24    12    17    1
    25    12    14    1
    26    14    15    1
    27    14    39    1
    28    14    40    1
    29    15    16    1
    30    15    41    1
    31    15    42    1
    32    16    17    1
    33    17    18    1
    34    17    19    1
    35    19    26   ar
    36    19    20   ar
    37    20    21   ar
    38    20    43    1
    39    21    22   ar
    40    21    44    1
    41    22    23    1
    42    22    24   ar
    43    24    25    1
    44    24    26   ar
    45    26    45    1
    46    27    28   ar
    47    27    46    1
    48    28    29   ar
    49    28    47    1
@<TRIPOS>SUBSTRUCTURE
     1 ZINC000182378855        1 TEMP              0 ****  ****    0 ROOT


##########                                Name:    ZINC001079355651
##########                DOCK_Rotatable_Bonds:                   5
##########                         Heavy_Atoms:                  25
##########                    Molecular_Weight:             353.851
##########                DOCK_Rotatable_Bonds:                   5
##########                       Formal_Charge:           0.0199997
##########                     HBond_Acceptors:                   5
##########                        HBond_Donors:                   1
##########                         Heavy_Atoms:                  25
##########                          Grid_Score:          -29.986652
##########                     Grid_vdw_energy:          -28.770596
##########                      Grid_es_energy:           -1.216056
##########           Internal_energy_repulsive:            4.544368

@<TRIPOS>MOLECULE
ZINC001079355651
 45 47 1 0 0
SMALL
USER_CHARGES


@<TRIPOS>ATOM
      1 C1         -8.0299    3.0786   50.9763 C.3     1  ZINC001079355651   -0.1500
      2 C2         -7.0153    2.2101   51.7229 C.3     1  ZINC001079355651   -0.1000
      3 H3         -6.7776    1.3205   51.1397 H       1  ZINC001079355651    0.0900
      4 C4         -7.5677    1.8111   53.1082 C.3     1  ZINC001079355651    0.0300
      5 N5         -6.3852    1.8454   54.0068 N.3     1  ZINC001079355651   -0.5100
      6 C6         -6.7947    1.9795   55.4111 C.3     1  ZINC001079355651    0.1600
      7 C7         -7.6935    0.8698   55.7682 C.1     1  ZINC001079355651   -0.1400
      8 C8         -8.4102   -0.0153   56.0530 C.1     1  ZINC001079355651   -0.1300
      9 C9         -9.2845   -1.0949   56.4004 C.ar    1  ZINC001079355651    0.0300
     10 C10       -10.6342   -1.0435   56.0505 C.ar    1  ZINC001079355651   -0.0900
     11 C11       -11.4721   -2.0868   56.3880 C.ar    1  ZINC001079355651   -0.1000
     12 C12       -10.9770   -3.1823   57.0718 C.ar    1  ZINC001079355651   -0.1000
     13 C13        -9.6387   -3.2397   57.4227 C.ar    1  ZINC001079355651   -0.0300
     14 Cl14       -9.0265   -4.6186   58.2815 Cl      1  ZINC001079355651   -0.0600
     15 C15        -8.7890   -2.2050   57.0853 C.ar    1  ZINC001079355651   -0.0900
     16 C16        -5.6208    3.0379   53.5588 C.3     1  ZINC001079355651    0.0200
     17 C17        -5.7335    3.0163   52.0170 C.3     1  ZINC001079355651    0.1500
     18 H18        -5.8275    4.0310   51.6301 H       1  ZINC001079355651    0.1000
     19 N19        -4.5649    2.3553   51.4306 N.am    1  ZINC001079355651   -0.7100
     20 C20        -4.2368    2.5839   50.1435 C.2     1  ZINC001079355651    0.5600
     21 O21        -4.9093    3.3392   49.4699 O.2     1  ZINC001079355651   -0.5300
     22 C22        -3.0561    1.9141   49.5500 C.ar    1  ZINC001079355651   -0.0900
     23 C23        -2.9520    1.7334   48.1675 C.ar    1  ZINC001079355651   -0.1400
     24 C24        -1.8335    1.1036   47.6567 C.ar    1  ZINC001079355651    0.1000
     25 N25        -0.8741    0.6764   48.4534 N.ar    1  ZINC001079355651   -0.4700
     26 C26        -0.9327    0.8266   49.7617 C.ar    1  ZINC001079355651    0.1000
     27 C27        -2.0123    1.4504   50.3564 C.ar    1  ZINC001079355651   -0.1200
     28 H28        -7.6063    3.3936   50.0226 H       1  ZINC001079355651    0.0600
     29 H29        -8.9387    2.5039   50.7983 H       1  ZINC001079355651    0.0700
     30 H30        -8.2672    3.9571   51.5763 H       1  ZINC001079355651    0.0600
     31 H31        -8.3179    2.5292   53.4396 H       1  ZINC001079355651    0.0600
     32 H32        -7.9903    0.8069   53.0741 H       1  ZINC001079355651    0.0900
     33 H33        -5.9127    1.9531   56.0509 H       1  ZINC001079355651    0.0700
     34 H34        -7.3152    2.9273   55.5489 H       1  ZINC001079355651    0.1100
     35 H35       -11.0226   -0.1887   55.5169 H       1  ZINC001079355651    0.1300
     36 H36       -12.5170   -2.0476   56.1178 H       1  ZINC001079355651    0.1400
     37 H37       -11.6371   -3.9961   57.3336 H       1  ZINC001079355651    0.1400
     38 H38        -7.7453   -2.2505   57.3592 H       1  ZINC001079355651    0.1400
     39 H39        -6.0663    3.9480   53.9607 H       1  ZINC001079355651    0.0600
     40 H40        -4.5775    2.9574   53.8641 H       1  ZINC001079355651    0.0900
     41 H41        -4.0273    1.7533   51.9686 H       1  ZINC001079355651    0.4000
     42 H42        -3.7343    2.0805   47.5088 H       1  ZINC001079355651    0.1400
     43 H43        -1.7440    0.9590   46.5902 H       1  ZINC001079355651    0.1600
     44 H44        -0.1237    0.4608   50.3765 H       1  ZINC001079355651    0.1700
     45 H45        -2.0536    1.5700   51.4290 H       1  ZINC001079355651    0.1500
@<TRIPOS>BOND
     1     1     2    1
     2     1    28    1
     3     1    29    1
     4     1    30    1
     5     2     3    1
     6     2    17    1
     7     2     4    1
     8     4     5    1
     9     4    31    1
    10     4    32    1
    11     5     6    1
    12     5    16    1
    13     6     7    1
    14     6    33    1
    15     6    34    1
    16     7     8    3
    17     8     9    1
    18     9    15   ar
    19     9    10   ar
    20    10    11   ar
    21    10    35    1
    22    11    12   ar
    23    11    36    1
    24    12    13   ar
    25    12    37    1
    26    13    14    1
    27    13    15   ar
    28    15    38    1
    29    16    17    1
    30    16    39    1
    31    16    40    1
    32    17    18    1
    33    17    19    1
    34    19    20   am
    35    19    41    1
    36    20    21    2
    37    20    22    1
    38    22    27   ar
    39    22    23   ar
    40    23    24   ar
    41    23    42    1
    42    24    25   ar
    43    24    43    1
    44    25    26   ar
    45    26    27   ar
    46    26    44    1
    47    27    45    1
@<TRIPOS>SUBSTRUCTURE
     1 ZINC001079355651        1 TEMP              0 ****  ****    0 ROOT


##########                                Name:    ZINC000279593480
##########                DOCK_Rotatable_Bonds:                   9
##########                         Heavy_Atoms:                  23
##########                    Molecular_Weight:              340.85
##########                DOCK_Rotatable_Bonds:                   9
##########                       Formal_Charge:          -0.0500002
##########                     HBond_Acceptors:                   6
##########                        HBond_Donors:                   3
##########                         Heavy_Atoms:                  23
##########                          Grid_Score:          -29.959173
##########                     Grid_vdw_energy:          -27.316221
##########                      Grid_es_energy:           -2.642952
##########           Internal_energy_repulsive:           15.106974

@<TRIPOS>MOLECULE
ZINC000279593480
 48 49 1 0 0
SMALL
USER_CHARGES


@<TRIPOS>ATOM
      1 C1         -4.2789    3.6043   53.1799 C.3     1  ZINC000279593480   -0.1400
      2 C2         -5.2842    2.5470   52.7189 C.3     1  ZINC000279593480   -0.1400
      3 C3         -5.0713    2.2546   51.2323 C.3     1  ZINC000279593480    0.1700
      4 H4         -4.9906    3.1938   50.6851 H       1  ZINC000279593480    0.0900
      5 C5         -6.2579    1.4519   50.6954 C.3     1  ZINC000279593480   -0.0900
      6 C6         -7.4989    2.3063   50.7291 C.ar    1  ZINC000279593480   -0.0800
      7 C7         -7.7039    3.2655   49.7550 C.ar    1  ZINC000279593480   -0.1000
      8 C8         -8.8419    4.0494   49.7853 C.ar    1  ZINC000279593480   -0.1100
      9 C9         -9.7759    3.8739   50.7909 C.ar    1  ZINC000279593480   -0.0400
     10 Cl10      -11.2057    4.8577   50.8294 Cl      1  ZINC000279593480   -0.0700
     11 C11        -9.5700    2.9137   51.7655 C.ar    1  ZINC000279593480   -0.1100
     12 C12        -8.4344    2.1266   51.7309 C.ar    1  ZINC000279593480   -0.1000
     13 N13        -3.8395    1.4808   51.0583 N.am    1  ZINC000279593480   -0.7400
     14 C14        -2.8767    1.9246   50.2262 C.2     1  ZINC000279593480    0.7100
     15 O15        -3.0299    2.9681   49.6209 O.2     1  ZINC000279593480   -0.5800
     16 N16        -1.7442    1.2120   50.0649 N.am    1  ZINC000279593480   -0.7500
     17 C17        -0.6970    1.6954   49.1617 C.3     1  ZINC000279593480    0.1200
     18 C18        -0.6072    0.7724   47.9446 C.3     1  ZINC000279593480    0.0900
     19 O19        -0.5494   -0.5944   48.3576 O.3     1  ZINC000279593480   -0.5400
     20 C20        -1.8068    1.0052   46.9991 C.3     1  ZINC000279593480   -0.1900
     21 C21        -1.1581    1.4761   45.6786 C.3     1  ZINC000279593480    0.0500
     22 O22         0.1861    0.9493   45.7194 O.3     1  ZINC000279593480   -0.3600
     23 C23         0.6244    1.1303   47.0836 C.3     1  ZINC000279593480    0.0900
     24 H24         0.9182    2.1661   47.2535 H       1  ZINC000279593480    0.0800
     25 C25         1.7889    0.1890   47.3982 C.3     1  ZINC000279593480   -0.1400
     26 H26        -4.4243    4.5190   52.6051 H       1  ZINC000279593480    0.0600
     27 H27        -4.4306    3.8126   54.2389 H       1  ZINC000279593480    0.0400
     28 H28        -3.2655    3.2345   53.0238 H       1  ZINC000279593480    0.0600
     29 H29        -5.1387    1.6323   53.2935 H       1  ZINC000279593480    0.0600
     30 H30        -6.2976    2.9169   52.8749 H       1  ZINC000279593480    0.0700
     31 H31        -6.0551    1.1461   49.6690 H       1  ZINC000279593480    0.0800
     32 H32        -6.4085    0.5678   51.3149 H       1  ZINC000279593480    0.0900
     33 H33        -6.9746    3.4026   48.9703 H       1  ZINC000279593480    0.1300
     34 H34        -9.0019    4.7990   49.0245 H       1  ZINC000279593480    0.1300
     35 H35       -10.2986    2.7764   52.5508 H       1  ZINC000279593480    0.1300
     36 H36        -8.2738    1.3768   52.4914 H       1  ZINC000279593480    0.1300
     37 H37        -3.7169    0.6490   51.5421 H       1  ZINC000279593480    0.3900
     38 H38        -1.6226    0.3790   50.5468 H       1  ZINC000279593480    0.3900
     39 H39        -0.9380    2.7065   48.8339 H       1  ZINC000279593480    0.0800
     40 H40         0.2596    1.7013   49.6844 H       1  ZINC000279593480    0.0800
     41 H41         0.0733   -0.7615   49.0783 H       1  ZINC000279593480    0.3700
     42 H42        -2.3570    0.0770   46.8445 H       1  ZINC000279593480    0.0900
     43 H43        -2.4638    1.7777   47.3986 H       1  ZINC000279593480    0.0900
     44 H44        -1.6990    1.0698   44.8240 H       1  ZINC000279593480    0.1000
     45 H45        -1.1377    2.5649   45.6330 H       1  ZINC000279593480    0.0600
     46 H46         2.6296    0.4197   46.7439 H       1  ZINC000279593480    0.0600
     47 H47         2.0907    0.3192   48.4374 H       1  ZINC000279593480    0.0700
     48 H48         1.4758   -0.8427   47.2373 H       1  ZINC000279593480    0.0700
@<TRIPOS>BOND
     1     1     2    1
     2     1    26    1
     3     1    27    1
     4     1    28    1
     5     2     3    1
     6     2    29    1
     7     2    30    1
     8     3     4    1
     9     3     5    1
    10     3    13    1
    11     5     6    1
    12     5    31    1
    13     5    32    1
    14     6    12   ar
    15     6     7   ar
    16     7     8   ar
    17     7    33    1
    18     8     9   ar
    19     8    34    1
    20     9    10    1
    21     9    11   ar
    22    11    12   ar
    23    11    35    1
    24    12    36    1
    25    13    14   am
    26    13    37    1
    27    14    15    2
    28    14    16   am
    29    16    17    1
    30    16    38    1
    31    17    18    1
    32    17    39    1
    33    17    40    1
    34    18    23    1
    35    18    19    1
    36    18    20    1
    37    19    41    1
    38    20    21    1
    39    20    42    1
    40    20    43    1
    41    21    22    1
    42    21    44    1
    43    21    45    1
    44    22    23    1
    45    23    24    1
    46    23    25    1
    47    25    46    1
    48    25    47    1
    49    25    48    1
@<TRIPOS>SUBSTRUCTURE
     1 ZINC000279593480        1 TEMP              0 ****  ****    0 ROOT


##########                                Name:    ZINC000650955167
##########                DOCK_Rotatable_Bonds:                   9
##########                         Heavy_Atoms:                  26
##########                    Molecular_Weight:             361.484
##########                DOCK_Rotatable_Bonds:                   9
##########                       Formal_Charge:        -7.07805e-07
##########                     HBond_Acceptors:                   6
##########                        HBond_Donors:                   2
##########                         Heavy_Atoms:                  26
##########                          Grid_Score:          -29.958673
##########                     Grid_vdw_energy:          -27.999981
##########                      Grid_es_energy:           -1.958692
##########           Internal_energy_repulsive:           15.451819

@<TRIPOS>MOLECULE
ZINC000650955167
 57 59 1 0 0
SMALL
USER_CHARGES


@<TRIPOS>ATOM
      1 C1         -6.2884   -3.6391   58.5380 C.3     1  ZINC000650955167    0.0200
      2 O2         -6.9934   -2.4978   58.0453 O.3     1  ZINC000650955167   -0.3200
      3 C3         -8.3348   -2.4612   58.2601 C.ar    1  ZINC000650955167    0.1300
      4 C4         -9.1677   -3.3570   57.6060 C.ar    1  ZINC000650955167   -0.2000
      5 C5        -10.5312   -3.3181   57.8265 C.ar    1  ZINC000650955167   -0.0800
      6 C6        -11.0654   -2.3872   58.6978 C.ar    1  ZINC000650955167   -0.1500
      7 C7        -10.2372   -1.4927   59.3507 C.ar    1  ZINC000650955167   -0.0800
      8 C8         -8.8728   -1.5315   59.1384 C.ar    1  ZINC000650955167   -0.1100
      9 C9         -7.9707   -0.5569   59.8506 C.3     1  ZINC000650955167   -0.0800
     10 C10        -8.4435    0.8716   59.5738 C.3     1  ZINC000650955167    0.1800
     11 H11        -9.4840    0.8536   59.2497 H       1  ZINC000650955167    0.0900
     12 N12        -7.6145    1.4650   58.5216 N.am    1  ZINC000650955167   -0.7300
     13 C13        -7.9959    1.3749   57.2321 C.2     1  ZINC000650955167    0.7400
     14 O14        -9.0287    0.8025   56.9421 O.2     1  ZINC000650955167   -0.5800
     15 N15        -7.2324    1.9194   56.2640 N.am    1  ZINC000650955167   -0.6700
     16 C16        -7.3037    2.0374   54.7998 C.3     1  ZINC000650955167    0.1100
     17 C17        -5.7706    2.1117   54.7854 C.3     1  ZINC000650955167    0.0300
     18 N18        -5.2238    3.0882   53.8337 N.3     1  ZINC000650955167   -0.5100
     19 C19        -5.6302    2.7638   52.4497 C.3     1  ZINC000650955167    0.0400
     20 C20        -4.4310    3.2019   51.5724 C.3     1  ZINC000650955167   -0.1600
     21 C21        -3.2275    2.8222   52.4745 C.3     1  ZINC000650955167    0.0800
     22 H22        -2.9831    1.7655   52.3666 H       1  ZINC000650955167    0.0600
     23 O23        -2.0921    3.6352   52.1709 O.3     1  ZINC000650955167   -0.5600
     24 C24        -3.7510    3.1188   53.8956 C.3     1  ZINC000650955167    0.0500
     25 C25        -5.9646    2.6627   56.2077 C.3     1  ZINC000650955167    0.1400
     26 C26        -8.3213    1.7057   60.8506 C.3     1  ZINC000650955167   -0.1100
     27 C27        -8.2867    3.1917   60.4876 C.3     1  ZINC000650955167   -0.1400
     28 C28        -9.5228    1.4299   61.7569 C.3     1  ZINC000650955167   -0.1500
     29 H29        -5.2290   -3.5421   58.3005 H       1  ZINC000650955167    0.1000
     30 H30        -6.4138   -3.7049   59.6188 H       1  ZINC000650955167    0.0600
     31 H31        -6.6845   -4.5406   58.0707 H       1  ZINC000650955167    0.0600
     32 H32        -8.7511   -4.0841   56.9248 H       1  ZINC000650955167    0.1300
     33 H33       -11.1802   -4.0153   57.3175 H       1  ZINC000650955167    0.1200
     34 H34       -12.1314   -2.3581   58.8686 H       1  ZINC000650955167    0.1200
     35 H35       -10.6569   -0.7661   60.0306 H       1  ZINC000650955167    0.1300
     36 H36        -8.0031   -0.7489   60.9231 H       1  ZINC000650955167    0.0900
     37 H37        -6.9490   -0.6777   59.4906 H       1  ZINC000650955167    0.0800
     38 H38        -6.7912    1.9226   58.7531 H       1  ZINC000650955167    0.4000
     39 H39        -7.6997    1.1471   54.3114 H       1  ZINC000650955167    0.0700
     40 H40        -7.7859    2.9544   54.4613 H       1  ZINC000650955167    0.0900
     41 H41        -5.2765    1.1413   54.7387 H       1  ZINC000650955167    0.0900
     42 H42        -5.8045    1.6927   52.3466 H       1  ZINC000650955167    0.0500
     43 H43        -6.5249    3.3229   52.1760 H       1  ZINC000650955167    0.0900
     44 H44        -4.4082    2.6445   50.6359 H       1  ZINC000650955167    0.0800
     45 H45        -4.4557    4.2754   51.3855 H       1  ZINC000650955167    0.0900
     46 H46        -1.3120    3.4373   52.7069 H       1  ZINC000650955167    0.3800
     47 H47        -3.4138    4.1042   54.2170 H       1  ZINC000650955167    0.0900
     48 H48        -3.3931    2.3576   54.5890 H       1  ZINC000650955167    0.0700
     49 H49        -6.0901    3.7448   56.2407 H       1  ZINC000650955167    0.0900
     50 H50        -5.2205    2.3023   56.9181 H       1  ZINC000650955167    0.0800
     51 H51        -7.4031    1.4379   61.3731 H       1  ZINC000650955167    0.0700
     52 H52        -9.2051    3.4596   59.9651 H       1  ZINC000650955167    0.0600
     53 H53        -8.1998    3.7859   61.3972 H       1  ZINC000650955167    0.0400
     54 H54        -7.4308    3.3881   59.8419 H       1  ZINC000650955167    0.0500
     55 H55        -9.5475    0.3713   62.0154 H       1  ZINC000650955167    0.0600
     56 H56        -9.4358    2.0242   62.6664 H       1  ZINC000650955167    0.0600
     57 H57       -10.4412    1.6978   61.2342 H       1  ZINC000650955167    0.0600
@<TRIPOS>BOND
     1     1     2    1
     2     1    29    1
     3     1    30    1
     4     1    31    1
     5     2     3    1
     6     3     8   ar
     7     3     4   ar
     8     4     5   ar
     9     4    32    1
    10     5     6   ar
    11     5    33    1
    12     6     7   ar
    13     6    34    1
    14     7     8   ar
    15     7    35    1
    16     8     9    1
    17     9    10    1
    18     9    36    1
    19     9    37    1
    20    10    11    1
    21    10    12    1
    22    10    26    1
    23    12    13   am
    24    12    38    1
    25    13    14    2
    26    13    15   am
    27    15    25    1
    28    15    16    1
    29    16    17    1
    30    16    39    1
    31    16    40    1
    32    17    18    1
    33    17    25    1
    34    17    41    1
    35    18    24    1
    36    18    19    1
    37    19    20    1
    38    19    42    1
    39    19    43    1
    40    20    21    1
    41    20    44    1
    42    20    45    1
    43    21    22    1
    44    21    23    1
    45    21    24    1
    46    23    46    1
    47    24    47    1
    48    24    48    1
    49    25    49    1
    50    25    50    1
    51    26    27    1
    52    26    28    1
    53    26    51    1
    54    27    52    1
    55    27    53    1
    56    27    54    1
    57    28    55    1
    58    28    56    1
    59    28    57    1
@<TRIPOS>SUBSTRUCTURE
     1 ZINC000650955167        1 TEMP              0 ****  ****    0 ROOT


##########                                Name:    ZINC000426805817
##########                DOCK_Rotatable_Bonds:                   6
##########                         Heavy_Atoms:                  26
##########                    Molecular_Weight:             412.286
##########                DOCK_Rotatable_Bonds:                   6
##########                       Formal_Charge:          -0.0100001
##########                     HBond_Acceptors:                   5
##########                        HBond_Donors:                   4
##########                         Heavy_Atoms:                  26
##########                          Grid_Score:          -29.957010
##########                     Grid_vdw_energy:          -28.613821
##########                      Grid_es_energy:           -1.343190
##########           Internal_energy_repulsive:            9.413204

@<TRIPOS>MOLECULE
ZINC000426805817
 44 47 1 0 0
SMALL
USER_CHARGES


@<TRIPOS>ATOM
      1 O1         -7.5389    3.0177   49.4231 O.co2   1  ZINC000426805817   -0.6300
      2 C2         -6.9465    3.8238   50.1202 C.2     1  ZINC000426805817    0.5000
      3 O3         -7.0242    5.0155   49.8743 O.co2   1  ZINC000426805817   -0.6800
      4 C4         -6.1232    3.3478   51.2891 C.3     1  ZINC000426805817   -0.0500
      5 H5         -5.4518    4.1447   51.6092 H       1  ZINC000426805817    0.1300
      6 C6         -7.0506    2.9673   52.4450 C.3     1  ZINC000426805817   -0.0500
      7 C7         -6.2994    3.0720   53.7472 C.2     1  ZINC000426805817   -0.1900
      8 C8         -5.2610    3.8820   54.0072 C.2     1  ZINC000426805817    0.0500
      9 N9         -4.8389    3.7003   55.2959 N.pl3   1  ZINC000426805817   -0.5900
     10 C10        -5.6152    2.7442   55.9127 C.ar    1  ZINC000426805817    0.1100
     11 C11        -5.6168    2.1916   57.1888 C.ar    1  ZINC000426805817   -0.1200
     12 C12        -6.5427    1.2264   57.5188 C.ar    1  ZINC000426805817   -0.0700
     13 C13        -7.4796    0.7962   56.5882 C.ar    1  ZINC000426805817   -0.1100
     14 Br14       -8.7398   -0.5300   57.0669 Br      1  ZINC000426805817   -0.0400
     15 C15        -7.4963    1.3304   55.3190 C.ar    1  ZINC000426805817   -0.0400
     16 C16        -6.5680    2.3136   54.9715 C.ar    1  ZINC000426805817   -0.1000
     17 N17        -5.3347    2.1752   50.8875 N.4     1  ZINC000426805817   -0.4800
     18 H18        -4.5790    2.0379   51.5419 H       1  ZINC000426805817    0.4000
     19 H19        -5.9265    1.3580   50.8811 H       1  ZINC000426805817    0.4200
     20 C20        -4.7847    2.3920   49.5427 C.3     1  ZINC000426805817    0.0400
     21 C21        -3.3620    1.8972   49.4961 C.ar    1  ZINC000426805817   -0.1600
     22 C22        -2.7428    1.6679   48.2719 C.ar    1  ZINC000426805817    0.1100
     23 N23        -3.1528    1.7949   46.9636 N.pl3   1  ZINC000426805817   -0.5900
     24 C24        -2.1375    1.4327   46.1207 C.2     1  ZINC000426805817    0.0600
     25 C25        -1.0599    1.0671   46.8328 C.2     1  ZINC000426805817   -0.2000
     26 C26        -1.4138    1.2065   48.2473 C.ar    1  ZINC000426805817   -0.1100
     27 C27        -0.7317    0.9838   49.4448 C.ar    1  ZINC000426805817   -0.0400
     28 C28        -1.3594    1.2157   50.6363 C.ar    1  ZINC000426805817   -0.1500
     29 C29        -2.6684    1.6758   50.6658 C.ar    1  ZINC000426805817   -0.0700
     30 H30        -7.9051    3.6438   52.4629 H       1  ZINC000426805817    0.1200
     31 H31        -7.4002    1.9440   52.3085 H       1  ZINC000426805817    0.0900
     32 H32        -4.8236    4.5744   53.3033 H       1  ZINC000426805817    0.1700
     33 H33        -4.1024    4.1743   55.7130 H       1  ZINC000426805817    0.4200
     34 H34        -4.8925    2.5184   57.9203 H       1  ZINC000426805817    0.1300
     35 H35        -6.5398    0.7999   58.5110 H       1  ZINC000426805817    0.1400
     36 H36        -8.2262    0.9936   54.5977 H       1  ZINC000426805817    0.1400
     37 H37        -5.3832    1.8465   48.8131 H       1  ZINC000426805817    0.1500
     38 H38        -4.8071    3.4562   49.3082 H       1  ZINC000426805817    0.1300
     39 H39        -4.0308    2.0958   46.6815 H       1  ZINC000426805817    0.4300
     40 H40        -2.1948    1.4399   45.0423 H       1  ZINC000426805817    0.1800
     41 H41        -0.1119    0.7332   46.4376 H       1  ZINC000426805817    0.1500
     42 H42         0.2884    0.6293   49.4295 H       1  ZINC000426805817    0.1300
     43 H43        -0.8312    1.0432   51.5625 H       1  ZINC000426805817    0.1300
     44 H44        -3.1510    1.8543   51.6154 H       1  ZINC000426805817    0.1300
@<TRIPOS>BOND
     1     1     2   ar
     2     2     3   ar
     3     2     4    1
     4     4     5    1
     5     4     6    1
     6     4    17    1
     7     6     7    1
     8     6    30    1
     9     6    31    1
    10     7    16    1
    11     7     8    2
    12     8     9    1
    13     8    32    1
    14     9    10    1
    15     9    33    1
    16    10    16   ar
    17    10    11   ar
    18    11    12   ar
    19    11    34    1
    20    12    13   ar
    21    12    35    1
    22    13    14    1
    23    13    15   ar
    24    15    16   ar
    25    15    36    1
    26    17    18    1
    27    17    19    1
    28    17    20    1
    29    20    21    1
    30    20    37    1
    31    20    38    1
    32    21    29   ar
    33    21    22   ar
    34    22    26   ar
    35    22    23    1
    36    23    24    1
    37    23    39    1
    38    24    25    2
    39    24    40    1
    40    25    26    1
    41    25    41    1
    42    26    27   ar
    43    27    28   ar
    44    27    42    1
    45    28    29   ar
    46    28    43    1
    47    29    44    1
@<TRIPOS>SUBSTRUCTURE
     1 ZINC000426805817        1 TEMP              0 ****  ****    0 ROOT


##########                                Name:    ZINC001085711660
##########                DOCK_Rotatable_Bonds:                   8
##########                         Heavy_Atoms:                  25
##########                    Molecular_Weight:             347.414
##########                DOCK_Rotatable_Bonds:                   8
##########                       Formal_Charge:         -0.00999993
##########                     HBond_Acceptors:                   7
##########                        HBond_Donors:                   0
##########                         Heavy_Atoms:                  25
##########                          Grid_Score:          -29.953514
##########                     Grid_vdw_energy:          -29.268188
##########                      Grid_es_energy:           -0.685326
##########           Internal_energy_repulsive:           13.465107

@<TRIPOS>MOLECULE
ZINC001085711660
 50 52 1 0 0
SMALL
USER_CHARGES


@<TRIPOS>ATOM
      1 C1         -4.3682    1.7688   50.4726 C.3     1  ZINC001085711660    0.0300
      2 O2         -5.3307    2.2204   49.5178 O.3     1  ZINC001085711660   -0.3800
      3 C3         -6.4801    2.8392   50.0992 C.3     1  ZINC001085711660    0.1400
      4 C4         -7.2447    1.8214   50.9056 C.2     1  ZINC001085711660    0.0100
      5 C5         -7.4558    0.5345   50.5517 C.2     1  ZINC001085711660   -0.1900
      6 C6         -8.2072   -0.0585   51.5784 C.2     1  ZINC001085711660   -0.1200
      7 C7         -8.4191    0.9088   52.5186 C.2     1  ZINC001085711660   -0.0700
      8 C8         -9.1607    0.7435   53.7729 C.2     1  ZINC001085711660    0.6000
      9 O9         -8.5737    0.7926   54.8379 O.2     1  ZINC001085711660   -0.5200
     10 N10       -10.4923    0.5372   53.7463 N.am    1  ZINC001085711660   -0.6000
     11 C11       -11.1989    0.4780   52.4643 C.3     1  ZINC001085711660    0.0700
     12 C12       -11.2332    0.3721   54.9994 C.3     1  ZINC001085711660    0.1300
     13 C13       -12.1065   -0.8813   54.9141 C.3     1  ZINC001085711660    0.0000
     14 H14       -11.7398   -1.6014   54.1826 H       1  ZINC001085711660    0.1000
     15 C15       -13.6040   -0.5747   54.7728 C.3     1  ZINC001085711660   -0.1400
     16 C16       -13.7623   -1.7692   55.7239 C.3     1  ZINC001085711660    0.0100
     17 N17       -12.4058   -1.4795   56.2285 N.3     1  ZINC001085711660   -0.4500
     18 C18       -11.6434   -2.7188   56.4304 C.3     1  ZINC001085711660    0.1500
     19 H19       -11.4760   -3.2033   55.4684 H       1  ZINC001085711660    0.1000
     20 C20       -12.4314   -3.6591   57.3448 C.3     1  ZINC001085711660   -0.1900
     21 C21       -10.3166   -2.3943   57.0670 C.2     1  ZINC001085711660    0.2000
     22 N22        -9.1546   -2.8152   56.6555 N.2     1  ZINC001085711660   -0.4700
     23 C23        -8.2044   -2.3216   57.4691 C.2     1  ZINC001085711660   -0.0400
     24 C24        -8.8156   -1.5762   58.4046 C.2     1  ZINC001085711660   -0.0500
     25 C25        -8.1481   -0.8263   59.5286 C.3     1  ZINC001085711660   -0.0700
     26 O26       -10.1373   -1.6207   58.1459 O.3     1  ZINC001085711660   -0.2000
     27 O27        -7.8222    2.0417   52.0938 O.3     1  ZINC001085711660   -0.1500
     28 H28        -4.0146    2.6158   51.0605 H       1  ZINC001085711660    0.0500
     29 H29        -4.8290    1.0347   51.1337 H       1  ZINC001085711660    0.0500
     30 H30        -3.5269    1.3113   49.9520 H       1  ZINC001085711660    0.0900
     31 H31        -6.1639    3.6548   50.7495 H       1  ZINC001085711660    0.0900
     32 H32        -7.1201    3.2319   49.3091 H       1  ZINC001085711660    0.0700
     33 H33        -7.1112    0.0527   49.6485 H       1  ZINC001085711660    0.1600
     34 H34        -8.5510   -1.0816   51.6172 H       1  ZINC001085711660    0.1600
     35 H35       -11.1219   -0.5285   52.0532 H       1  ZINC001085711660    0.0600
     36 H36       -12.2486    0.7291   52.6162 H       1  ZINC001085711660    0.0900
     37 H37       -10.7519    1.1894   51.7699 H       1  ZINC001085711660    0.0800
     38 H38       -10.5303    0.2696   55.8262 H       1  ZINC001085711660    0.0900
     39 H39       -11.8650    1.2446   55.1656 H       1  ZINC001085711660    0.0900
     40 H40       -13.9064    0.3806   55.2018 H       1  ZINC001085711660    0.1000
     41 H41       -14.0021   -0.7449   53.7724 H       1  ZINC001085711660    0.0800
     42 H42       -14.5433   -1.6287   56.4712 H       1  ZINC001085711660    0.0900
     43 H43       -13.8377   -2.7270   55.2093 H       1  ZINC001085711660    0.0800
     44 H44       -12.6932   -3.1364   58.2646 H       1  ZINC001085711660    0.0800
     45 H45       -13.3412   -3.9807   56.8380 H       1  ZINC001085711660    0.0800
     46 H46       -11.8209   -4.5301   57.5830 H       1  ZINC001085711660    0.0700
     47 H47        -7.1414   -2.4937   57.3854 H       1  ZINC001085711660    0.1800
     48 H48        -7.9009    0.1819   59.1963 H       1  ZINC001085711660    0.0800
     49 H49        -8.8248   -0.7721   60.3814 H       1  ZINC001085711660    0.0800
     50 H50        -7.2360   -1.3464   59.8210 H       1  ZINC001085711660    0.0900
@<TRIPOS>BOND
     1     1     2    1
     2     1    28    1
     3     1    29    1
     4     1    30    1
     5     2     3    1
     6     3     4    1
     7     3    31    1
     8     3    32    1
     9     4    27    1
    10     4     5    2
    11     5     6    1
    12     5    33    1
    13     6     7    2
    14     6    34    1
    15     7     8    1
    16     7    27    1
    17     8     9    2
    18     8    10   am
    19    10    11    1
    20    10    12    1
    21    11    35    1
    22    11    36    1
    23    11    37    1
    24    12    13    1
    25    12    38    1
    26    12    39    1
    27    13    14    1
    28    13    17    1
    29    13    15    1
    30    15    16    1
    31    15    40    1
    32    15    41    1
    33    16    17    1
    34    16    42    1
    35    16    43    1
    36    17    18    1
    37    18    19    1
    38    18    20    1
    39    18    21    1
    40    20    44    1
    41    20    45    1
    42    20    46    1
    43    21    26    1
    44    21    22    2
    45    22    23    1
    46    23    24    2
    47    23    47    1
    48    24    25    1
    49    24    26    1
    50    25    48    1
    51    25    49    1
    52    25    50    1
@<TRIPOS>SUBSTRUCTURE
     1 ZINC001085711660        1 TEMP              0 ****  ****    0 ROOT


##########                                Name:    ZINC000328606936
##########                DOCK_Rotatable_Bonds:                   6
##########                         Heavy_Atoms:                  23
##########                    Molecular_Weight:             338.428
##########                DOCK_Rotatable_Bonds:                   6
##########                       Formal_Charge:           0.0100001
##########                     HBond_Acceptors:                   7
##########                        HBond_Donors:                   2
##########                         Heavy_Atoms:                  23
##########                          Grid_Score:          -29.939577
##########                     Grid_vdw_energy:          -23.491846
##########                      Grid_es_energy:           -6.447731
##########           Internal_energy_repulsive:            9.568548

@<TRIPOS>MOLECULE
ZINC000328606936
 45 47 1 0 0
SMALL
USER_CHARGES


@<TRIPOS>ATOM
      1 C1         -0.4972   -0.9334   47.9570 C.3     1  <0>        -0.0500
      2 N2         -1.3587    0.2562   47.9353 N.4     1  <0>        -0.3500
      3 H3         -2.2724    0.0037   47.5895 H       1  <0>         0.4200
      4 C4         -0.7667    1.2737   47.0566 C.3     1  <0>        -0.0900
      5 C5         -1.4345    1.2216   45.7066 C.2     1  <0>         0.4900
      6 O6         -1.7845    0.1508   45.2406 O.co2   1  <0>        -0.6700
      7 O7         -1.6248    2.2504   45.0806 O.co2   1  <0>        -0.6400
      8 C8         -1.4823    0.7962   49.2959 C.3     1  <0>         0.0100
      9 H9         -1.7394    0.0015   49.9962 H       1  <0>         0.1600
     10 C10        -2.5483    1.9123   49.3356 C.3     1  <0>         0.1000
     11 N11        -2.0057    2.9140   50.2826 N.am    1  <0>        -0.6200
     12 C12        -2.6783    3.6251   51.2091 C.2     1  <0>         0.6200
     13 O13        -2.0846    4.4166   51.9179 O.2     1  <0>        -0.5100
     14 C14        -4.1249    3.4454   51.3631 C.2     1  <0>        -0.2800
     15 C15        -4.7484    2.9807   52.4803 C.2     1  <0>        -0.0300
     16 C16        -6.1246    2.9048   52.3687 C.2     1  <0>        -0.1200
     17 C17        -6.6005    3.3068   51.1684 C.2     1  <0>        -0.1900
     18 C18        -8.0701    3.3214   50.7919 C.3     1  <0>        -0.0500
     19 C19        -8.8413    2.4484   51.7852 C.3     1  <0>        -0.1200
     20 C20        -8.4594    2.8587   53.2104 C.3     1  <0>        -0.1200
     21 C21        -7.0241    2.4126   53.4952 C.3     1  <0>        -0.0600
     22 S22        -5.3318    3.8023   50.1385 S.3     1  <0>         0.2000
     23 C23        -0.5560    2.9566   49.9804 C.3     1  <0>         0.0600
     24 C24        -0.1677    1.4823   49.7221 C.3     1  <0>         0.0800
     25 H25         0.5692    1.4193   48.9215 H       1  <0>         0.1000
     26 O26         0.3447    0.8870   50.9159 O.3     1  <0>        -0.5400
     27 H27         0.4897   -0.6605   48.3305 H       1  <0>         0.1100
     28 H28        -0.9366   -1.6883   48.6090 H       1  <0>         0.1100
     29 H29        -0.4055   -1.3340   46.9474 H       1  <0>         0.1600
     30 H30        -0.9107    2.2610   47.4953 H       1  <0>         0.1200
     31 H31         0.2997    1.0790   46.9421 H       1  <0>         0.1300
     32 H32        -2.6740    2.3532   48.3467 H       1  <0>         0.1000
     33 H33        -3.4970    1.5189   49.7006 H       1  <0>         0.1200
     34 H34        -4.2150    2.6958   53.3751 H       1  <0>         0.1500
     35 H35        -8.4479    4.3430   50.8330 H       1  <0>         0.0900
     36 H36        -8.1931    2.9243   49.7842 H       1  <0>         0.0800
     37 H37        -9.9123    2.5893   51.6397 H       1  <0>         0.0700
     38 H38        -8.5848    1.4011   51.6262 H       1  <0>         0.0700
     39 H39        -8.5309    3.9420   53.3090 H       1  <0>         0.0700
     40 H40        -9.1360    2.3826   53.9200 H       1  <0>         0.0700
     41 H41        -6.9833    1.3246   53.5474 H       1  <0>         0.0800
     42 H42        -6.6900    2.8385   54.4412 H       1  <0>         0.0800
     43 H43        -0.3705    3.5606   49.0923 H       1  <0>         0.1000
     44 H44        -0.0017    3.3511   50.8320 H       1  <0>         0.1000
     45 H45         0.6465   -0.0247   50.8025 H       1  <0>         0.4000
@<TRIPOS>BOND
     1     1     2    1
     2     1    27    1
     3     1    28    1
     4     1    29    1
     5     2     3    1
     6     2     4    1
     7     2     8    1
     8     4     5    1
     9     4    30    1
    10     4    31    1
    11     5     6   ar
    12     5     7   ar
    13     8     9    1
    14     8    24    1
    15     8    10    1
    16    10    11    1
    17    10    32    1
    18    10    33    1
    19    11    12   am
    20    11    23    1
    21    12    13    2
    22    12    14    1
    23    14    22    1
    24    14    15    2
    25    15    16    1
    26    15    34    1
    27    16    21    1
    28    16    17    2
    29    17    18    1
    30    17    22    1
    31    18    19    1
    32    18    35    1
    33    18    36    1
    34    19    20    1
    35    19    37    1
    36    19    38    1
    37    20    21    1
    38    20    39    1
    39    20    40    1
    40    21    41    1
    41    21    42    1
    42    23    24    1
    43    23    43    1
    44    23    44    1
    45    24    25    1
    46    24    26    1
    47    26    45    1
@<TRIPOS>SUBSTRUCTURE
     1 <0>         1 TEMP              0 ****  ****    0 ROOT


##########                                Name:    ZINC001045438664
##########                DOCK_Rotatable_Bonds:                   6
##########                         Heavy_Atoms:                  26
##########                    Molecular_Weight:             352.439
##########                DOCK_Rotatable_Bonds:                   6
##########                       Formal_Charge:          -0.0099999
##########                     HBond_Acceptors:                   7
##########                        HBond_Donors:                   2
##########                         Heavy_Atoms:                  26
##########                          Grid_Score:          -29.935387
##########                     Grid_vdw_energy:          -27.411697
##########                      Grid_es_energy:           -2.523690
##########           Internal_energy_repulsive:           20.797819

@<TRIPOS>MOLECULE
ZINC001045438664
 50 53 1 0 0
SMALL
USER_CHARGES


@<TRIPOS>ATOM
      1 C1         -8.6549   -5.0316   58.3398 C.3     1  ZINC001045438664   -0.1100
      2 C2         -9.0158   -3.5982   58.0458 C.ar    1  ZINC001045438664    0.2100
      3 C3         -8.0834   -2.5941   58.2155 C.ar    1  ZINC001045438664   -0.3000
      4 C4         -8.4640   -1.2809   57.9300 C.ar    1  ZINC001045438664    0.4500
      5 N5         -7.5648   -0.2383   58.0838 N.pl3   1  ZINC001045438664   -0.7100
      6 C6         -8.0338    1.1483   58.0239 C.3     1  ZINC001045438664    0.1500
      7 H7         -9.0956    1.1836   58.2678 H       1  ZINC001045438664    0.0900
      8 C8         -7.8160    1.6999   56.6135 C.3     1  ZINC001045438664   -0.1300
      9 C9         -8.3058    3.1480   56.5509 C.3     1  ZINC001045438664   -0.1200
     10 C10        -7.5231    3.9949   57.5563 C.3     1  ZINC001045438664   -0.1200
     11 C11        -7.7409    3.4434   58.9667 C.3     1  ZINC001045438664   -0.1300
     12 C12        -7.2510    1.9953   59.0292 C.3     1  ZINC001045438664    0.1400
     13 H13        -6.1893    1.9600   58.7853 H       1  ZINC001045438664    0.1000
     14 N14        -7.4596    1.4671   60.3797 N.am    1  ZINC001045438664   -0.7200
     15 C15        -8.7054    1.3897   60.8880 C.2     1  ZINC001045438664    0.5700
     16 O16        -9.6558    1.7595   60.2265 O.2     1  ZINC001045438664   -0.5200
     17 C17        -8.9161    0.8551   62.2501 C.ar    1  ZINC001045438664   -0.2500
     18 C18        -7.8461    0.3530   62.9994 C.ar    1  ZINC001045438664    0.1900
     19 N19        -8.0796   -0.1148   64.2131 N.ar    1  ZINC001045438664   -0.5200
     20 C20        -9.2977   -0.1127   64.7184 C.ar    1  ZINC001045438664    0.3200
     21 N21       -10.3339    0.3503   64.0470 N.ar    1  ZINC001045438664   -0.5200
     22 C22       -10.1903    0.8421   62.8289 C.ar    1  ZINC001045438664    0.2100
     23 N23        -9.7031   -1.0477   57.5077 N.ar    1  ZINC001045438664   -0.5800
     24 C24       -10.5607   -2.0372   57.3599 C.ar    1  ZINC001045438664    0.4000
     25 C25       -11.9557   -1.7318   56.8786 C.3     1  ZINC001045438664   -0.1100
     26 C26       -12.1440   -1.4609   55.3846 C.3     1  ZINC001045438664   -0.1500
     27 C27       -12.6412   -2.7739   55.9925 C.3     1  ZINC001045438664   -0.1500
     28 N28       -10.2308   -3.2869   57.6161 N.ar    1  ZINC001045438664   -0.5600
     29 H29        -8.2551   -5.4976   57.4391 H       1  ZINC001045438664    0.0800
     30 H30        -7.9037   -5.0627   59.1290 H       1  ZINC001045438664    0.0800
     31 H31        -9.5449   -5.5713   58.6636 H       1  ZINC001045438664    0.0800
     32 H32        -7.0850   -2.8184   58.5607 H       1  ZINC001045438664    0.1400
     33 H33        -6.6246   -0.4265   58.2309 H       1  ZINC001045438664    0.4100
     34 H34        -6.7543    1.6646   56.3694 H       1  ZINC001045438664    0.0700
     35 H35        -8.3737    1.0964   55.8972 H       1  ZINC001045438664    0.0700
     36 H36        -8.1506    3.5410   55.5462 H       1  ZINC001045438664    0.0700
     37 H37        -9.3676    3.1832   56.7950 H       1  ZINC001045438664    0.0700
     38 H38        -6.4613    3.9597   57.3123 H       1  ZINC001045438664    0.0700
     39 H39        -7.8720    5.0267   57.5118 H       1  ZINC001045438664    0.0700
     40 H40        -7.1831    4.0469   59.6829 H       1  ZINC001045438664    0.0800
     41 H41        -8.8026    3.4787   59.2107 H       1  ZINC001045438664    0.0700
     42 H42        -6.7011    1.1732   60.9080 H       1  ZINC001045438664    0.4000
     43 H43        -6.8458    0.3476   62.5924 H       1  ZINC001045438664    0.1700
     44 H44        -9.4515   -0.5029   65.7136 H       1  ZINC001045438664    0.2100
     45 H45       -11.0438    1.2196   62.2853 H       1  ZINC001045438664    0.1800
     46 H46       -12.5814   -1.1731   57.5746 H       1  ZINC001045438664    0.1300
     47 H47       -12.8938   -0.7236   55.0975 H       1  ZINC001045438664    0.1000
     48 H48       -11.2590   -1.5034   54.7498 H       1  ZINC001045438664    0.1100
     49 H49       -12.0832   -3.6803   55.7577 H       1  ZINC001045438664    0.1000
     50 H50       -13.7180   -2.9005   56.1054 H       1  ZINC001045438664    0.1000
@<TRIPOS>BOND
     1     1     2    1
     2     1    29    1
     3     1    30    1
     4     1    31    1
     5     2    28   ar
     6     2     3   ar
     7     3     4   ar
     8     3    32    1
     9     4     5    1
    10     4    23   ar
    11     5     6    1
    12     5    33    1
    13     6     7    1
    14     6    12    1
    15     6     8    1
    16     8     9    1
    17     8    34    1
    18     8    35    1
    19     9    10    1
    20     9    36    1
    21     9    37    1
    22    10    11    1
    23    10    38    1
    24    10    39    1
    25    11    12    1
    26    11    40    1
    27    11    41    1
    28    12    13    1
    29    12    14    1
    30    14    15   am
    31    14    42    1
    32    15    16    2
    33    15    17    1
    34    17    22   ar
    35    17    18   ar
    36    18    19   ar
    37    18    43    1
    38    19    20   ar
    39    20    21   ar
    40    20    44    1
    41    21    22   ar
    42    22    45    1
    43    23    24   ar
    44    24    25    1
    45    24    28   ar
    46    25    27    1
    47    25    26    1
    48    25    46    1
    49    26    27    1
    50    26    47    1
    51    26    48    1
    52    27    49    1
    53    27    50    1
@<TRIPOS>SUBSTRUCTURE
     1 ZINC001045438664        1 TEMP              0 ****  ****    0 ROOT


##########                                Name:    ZINC001085817863
##########                DOCK_Rotatable_Bonds:                   7
##########                         Heavy_Atoms:                  24
##########                    Molecular_Weight:             326.442
##########                DOCK_Rotatable_Bonds:                   7
##########                       Formal_Charge:           0.0299998
##########                     HBond_Acceptors:                   5
##########                        HBond_Donors:                   0
##########                         Heavy_Atoms:                  24
##########                          Grid_Score:          -29.931719
##########                     Grid_vdw_energy:          -28.473867
##########                      Grid_es_energy:           -1.457852
##########           Internal_energy_repulsive:           15.196786

@<TRIPOS>MOLECULE
ZINC001085817863
 50 52 1 0 0
SMALL
USER_CHARGES


@<TRIPOS>ATOM
      1 C1        -10.7229   -3.4164   57.2258 C.3     1  ZINC001085817863   -0.1400
      2 C2         -9.4390   -2.8402   56.6254 C.3     1  ZINC001085817863   -0.0700
      3 C3         -8.6584   -2.1267   57.6991 C.2     1  ZINC001085817863    0.1100
      4 C4         -8.8181   -0.8199   58.0697 C.2     1  ZINC001085817863   -0.2400
      5 C5         -9.7725    0.1496   57.5062 C.2     1  ZINC001085817863    0.6000
      6 O6        -10.8704    0.2863   58.0114 O.2     1  ZINC001085817863   -0.5300
      7 N7         -9.4294    0.8857   56.4305 N.am    1  ZINC001085817863   -0.6100
      8 C8        -10.3789    1.8502   55.8699 C.3     1  ZINC001085817863    0.0800
      9 C9         -8.1070    0.7212   55.8220 C.3     1  ZINC001085817863    0.1300
     10 C10        -7.2807    1.9890   56.0470 C.3     1  ZINC001085817863    0.0100
     11 H11        -7.8556    2.9009   55.8859 H       1  ZINC001085817863    0.0800
     12 C12        -6.5001    1.9837   57.3689 C.3     1  ZINC001085817863   -0.1400
     13 C13        -5.4018    2.6437   56.5236 C.3     1  ZINC001085817863    0.0000
     14 N14        -5.9853    1.9789   55.3420 N.3     1  ZINC001085817863   -0.4400
     15 C15        -6.0066    2.8844   54.1855 C.3     1  ZINC001085817863    0.0700
     16 C16        -6.3270    2.1000   52.9392 C.ar    1  ZINC001085817863   -0.1300
     17 C17        -5.3088    1.6315   52.1234 C.ar    1  ZINC001085817863   -0.0700
     18 C18        -5.6507    0.9140   50.9872 C.ar    1  ZINC001085817863   -0.1700
     19 C19        -6.9855    0.6912   50.7077 C.ar    1  ZINC001085817863    0.1000
     20 N20        -7.9281    1.1521   51.5067 N.ar    1  ZINC001085817863   -0.4800
     21 C21        -7.6398    1.8336   52.5982 C.ar    1  ZINC001085817863    0.1200
     22 C22        -7.8470   -0.5795   59.1425 C.2     1  ZINC001085817863   -0.1900
     23 C23        -7.1930   -1.7400   59.3278 C.2     1  ZINC001085817863   -0.0200
     24 N24        -7.6893   -2.6691   58.4605 N.pl3   1  ZINC001085817863   -0.4400
     25 C25        -7.2267   -4.0558   58.3644 C.3     1  ZINC001085817863    0.0600
     26 H26       -11.2875   -3.9324   56.4492 H       1  ZINC001085817863    0.0600
     27 H27       -10.4694   -4.1198   58.0188 H       1  ZINC001085817863    0.0500
     28 H28       -11.3266   -2.6073   57.6371 H       1  ZINC001085817863    0.0600
     29 H29        -8.8353   -3.6491   56.2141 H       1  ZINC001085817863    0.0600
     30 H30        -9.6926   -2.1367   55.8324 H       1  ZINC001085817863    0.1100
     31 H31       -10.6522    2.5774   56.6345 H       1  ZINC001085817863    0.0700
     32 H32        -9.9186    2.3651   55.0267 H       1  ZINC001085817863    0.0700
     33 H33       -11.2725    1.3257   55.5315 H       1  ZINC001085817863    0.0600
     34 H34        -7.6001   -0.1288   56.2787 H       1  ZINC001085817863    0.0800
     35 H35        -8.2186    0.5455   54.7520 H       1  ZINC001085817863    0.1000
     36 H36        -6.9209    2.6312   58.1382 H       1  ZINC001085817863    0.0800
     37 H37        -6.2457    0.9883   57.7329 H       1  ZINC001085817863    0.1000
     38 H38        -5.4745    3.7307   56.4891 H       1  ZINC001085817863    0.0700
     39 H39        -4.3981    2.2952   56.7671 H       1  ZINC001085817863    0.0800
     40 H40        -6.7666    3.6508   54.3379 H       1  ZINC001085817863    0.0900
     41 H41        -5.0306    3.3572   54.0762 H       1  ZINC001085817863    0.0500
     42 H42        -4.2738    1.8213   52.3669 H       1  ZINC001085817863    0.1300
     43 H43        -4.8834    0.5342   50.3287 H       1  ZINC001085817863    0.1300
     44 H44        -7.2601    0.1335   49.8246 H       1  ZINC001085817863    0.1600
     45 H45        -8.4389    2.1952   53.2283 H       1  ZINC001085817863    0.1500
     46 H46        -7.6885    0.3455   59.6770 H       1  ZINC001085817863    0.1600
     47 H47        -6.4065   -1.9098   60.0481 H       1  ZINC001085817863    0.1600
     48 H48        -7.8091   -4.6809   59.0413 H       1  ZINC001085817863    0.0800
     49 H49        -7.3539   -4.4112   57.3418 H       1  ZINC001085817863    0.0900
     50 H50        -6.1730   -4.1072   58.6385 H       1  ZINC001085817863    0.0900
@<TRIPOS>BOND
     1     1     2    1
     2     1    26    1
     3     1    27    1
     4     1    28    1
     5     2     3    1
     6     2    29    1
     7     2    30    1
     8     3    24    1
     9     3     4    2
    10     4     5    1
    11     4    22    1
    12     5     6    2
    13     5     7   am
    14     7     8    1
    15     7     9    1
    16     8    31    1
    17     8    32    1
    18     8    33    1
    19     9    10    1
    20     9    34    1
    21     9    35    1
    22    10    11    1
    23    10    14    1
    24    10    12    1
    25    12    13    1
    26    12    36    1
    27    12    37    1
    28    13    14    1
    29    13    38    1
    30    13    39    1
    31    14    15    1
    32    15    16    1
    33    15    40    1
    34    15    41    1
    35    16    21   ar
    36    16    17   ar
    37    17    18   ar
    38    17    42    1
    39    18    19   ar
    40    18    43    1
    41    19    20   ar
    42    19    44    1
    43    20    21   ar
    44    21    45    1
    45    22    23    2
    46    22    46    1
    47    23    24    1
    48    23    47    1
    49    24    25    1
    50    25    48    1
    51    25    49    1
    52    25    50    1
@<TRIPOS>SUBSTRUCTURE
     1 ZINC001085817863        1 TEMP              0 ****  ****    0 ROOT


##########                                Name:    ZINC000187810810
##########                DOCK_Rotatable_Bonds:                   7
##########                         Heavy_Atoms:                  27
##########                    Molecular_Weight:             386.414
##########                DOCK_Rotatable_Bonds:                   7
##########                       Formal_Charge:           0.0599998
##########                     HBond_Acceptors:                   8
##########                        HBond_Donors:                   1
##########                         Heavy_Atoms:                  27
##########                          Grid_Score:          -29.929985
##########                     Grid_vdw_energy:          -28.131605
##########                      Grid_es_energy:           -1.798381
##########           Internal_energy_repulsive:           50.295441

@<TRIPOS>MOLECULE
ZINC000187810810
 52 53 1 0 0
SMALL
USER_CHARGES


@<TRIPOS>ATOM
      1 C1          0.5154    0.4877   47.2591 C.3     1  ZINC000187810810   -0.1800
      2 C2         -0.7370    1.3080   46.9434 C.3     1  ZINC000187810810    0.1400
      3 C3         -0.4843    2.7773   47.2867 C.3     1  ZINC000187810810   -0.1800
      4 C4         -1.0676    1.1815   45.4550 C.3     1  ZINC000187810810   -0.1400
      5 O5         -1.8516    0.8118   47.7307 O.3     1  ZINC000187810810   -0.3600
      6 C6         -2.8272    1.6900   48.0303 C.2     1  ZINC000187810810    0.6500
      7 O7         -3.5071    2.1684   47.1441 O.2     1  ZINC000187810810   -0.5600
      8 N8         -3.0496    2.0384   49.3131 N.am    1  ZINC000187810810   -0.6000
      9 C9         -4.1157    2.9894   49.6564 C.3     1  ZINC000187810810    0.1100
     10 C10        -3.5150    4.1217   50.4953 C.3     1  ZINC000187810810   -0.1400
     11 C11        -2.7905    3.5261   51.7048 C.3     1  ZINC000187810810    0.1800
     12 C12        -2.2187    4.6559   52.5636 C.3     1  ZINC000187810810   -0.1600
     13 N13        -3.7354    2.7385   52.5004 N.am    1  ZINC000187810810   -0.7100
     14 C14        -4.8159    3.3318   53.0453 C.2     1  ZINC000187810810    0.5500
     15 O15        -5.0056    4.5207   52.8779 O.2     1  ZINC000187810810   -0.5100
     16 C16        -5.7704    2.5366   53.8469 C.ar    1  ZINC000187810810   -0.0900
     17 C17        -5.5895    2.4049   55.2244 C.ar    1  ZINC000187810810   -0.0900
     18 C18        -6.4843    1.6617   55.9667 C.ar    1  ZINC000187810810   -0.0900
     19 C19        -7.5585    1.0474   55.3482 C.ar    1  ZINC000187810810   -0.0900
     20 C20        -7.7433    1.1736   53.9826 C.ar    1  ZINC000187810810   -0.0800
     21 C21        -6.8597    1.9189   53.2299 C.ar    1  ZINC000187810810   -0.1300
     22 C22        -7.0628    2.0556   51.7429 C.3     1  ZINC000187810810    0.5200
     23 F23        -6.2104    1.1715   51.0727 F       1  ZINC000187810810   -0.1800
     24 F24        -8.3913    1.7546   51.4240 F       1  ZINC000187810810   -0.1600
     25 F25        -6.7751    3.3676   51.3516 F       1  ZINC000187810810   -0.1600
     26 C26        -1.6514    2.6233   51.2255 C.3     1  ZINC000187810810   -0.1500
     27 C27        -2.2347    1.4698   50.3954 C.3     1  ZINC000187810810    0.1300
     28 H28         0.7510    0.5778   48.3196 H       1  ZINC000187810810    0.0900
     29 H29         0.3353   -0.5591   47.0146 H       1  ZINC000187810810    0.0600
     30 H30         1.3521    0.8601   46.6681 H       1  ZINC000187810810    0.0700
     31 H31         0.3525    3.1498   46.6957 H       1  ZINC000187810810    0.0700
     32 H32        -1.3764    3.3617   47.0617 H       1  ZINC000187810810    0.0600
     33 H33        -0.2487    2.8675   48.3471 H       1  ZINC000187810810    0.0900
     34 H34        -1.2478    0.1346   45.2104 H       1  ZINC000187810810    0.0700
     35 H35        -1.9599    1.7658   45.2300 H       1  ZINC000187810810    0.0700
     36 H36        -0.2309    1.5539   44.8639 H       1  ZINC000187810810    0.0800
     37 H37        -4.5468    3.4002   48.7435 H       1  ZINC000187810810    0.1000
     38 H38        -4.8890    2.4796   50.2310 H       1  ZINC000187810810    0.0700
     39 H39        -2.8071    4.6873   49.8894 H       1  ZINC000187810810    0.0900
     40 H40        -4.3111    4.7828   50.8375 H       1  ZINC000187810810    0.0900
     41 H41        -3.0300    5.2982   52.9060 H       1  ZINC000187810810    0.0600
     42 H42        -1.7027    4.2318   53.4251 H       1  ZINC000187810810    0.0800
     43 H43        -1.5160    5.2423   51.9717 H       1  ZINC000187810810    0.0700
     44 H44        -3.5834    1.7900   52.6350 H       1  ZINC000187810810    0.4000
     45 H45        -4.7509    2.8834   55.7083 H       1  ZINC000187810810    0.1400
     46 H46        -6.3454    1.5590   57.0328 H       1  ZINC000187810810    0.1400
     47 H47        -8.2557    0.4665   55.9337 H       1  ZINC000187810810    0.1400
     48 H48        -8.5838    0.6912   53.5058 H       1  ZINC000187810810    0.1500
     49 H49        -0.9611    3.2030   50.6127 H       1  ZINC000187810810    0.0800
     50 H50        -1.1213    2.2180   52.0874 H       1  ZINC000187810810    0.1000
     51 H51        -2.8534    0.8376   51.0324 H       1  ZINC000187810810    0.0700
     52 H52        -1.4234    0.8798   49.9690 H       1  ZINC000187810810    0.1000
@<TRIPOS>BOND
     1     1     2    1
     2     1    28    1
     3     1    29    1
     4     1    30    1
     5     2     3    1
     6     2     4    1
     7     2     5    1
     8     3    31    1
     9     3    32    1
    10     3    33    1
    11     4    34    1
    12     4    35    1
    13     4    36    1
    14     5     6    1
    15     6     7    2
    16     6     8   am
    17     8    27    1
    18     8     9    1
    19     9    10    1
    20     9    37    1
    21     9    38    1
    22    10    11    1
    23    10    39    1
    24    10    40    1
    25    11    12    1
    26    11    13    1
    27    11    26    1
    28    12    41    1
    29    12    42    1
    30    12    43    1
    31    13    14   am
    32    13    44    1
    33    14    15    2
    34    14    16    1
    35    16    21   ar
    36    16    17   ar
    37    17    18   ar
    38    17    45    1
    39    18    19   ar
    40    18    46    1
    41    19    20   ar
    42    19    47    1
    43    20    21   ar
    44    20    48    1
    45    21    22    1
    46    22    23    1
    47    22    24    1
    48    22    25    1
    49    26    27    1
    50    26    49    1
    51    26    50    1
    52    27    51    1
    53    27    52    1
@<TRIPOS>SUBSTRUCTURE
     1 ZINC000187810810        1 TEMP              0 ****  ****    0 ROOT


##########                                Name:    ZINC000826435081
##########                DOCK_Rotatable_Bonds:                   7
##########                         Heavy_Atoms:                  28
##########                    Molecular_Weight:             388.361
##########                DOCK_Rotatable_Bonds:                   7
##########                       Formal_Charge:           0.0099996
##########                     HBond_Acceptors:                  12
##########                        HBond_Donors:                   3
##########                         Heavy_Atoms:                  28
##########                          Grid_Score:          -29.928602
##########                     Grid_vdw_energy:          -29.074877
##########                      Grid_es_energy:           -0.853726
##########           Internal_energy_repulsive:           11.647480

@<TRIPOS>MOLECULE
ZINC000826435081
 45 48 1 0 0
SMALL
USER_CHARGES


@<TRIPOS>ATOM
      1 O1         -6.5662    3.1345   53.2987 O.2     1  ZINC000826435081   -0.5700
      2 C2         -7.3147    2.2259   52.9946 C.2     1  ZINC000826435081    0.7200
      3 N3         -7.6797    2.0553   51.7084 N.am    1  ZINC000826435081   -0.7300
      4 C4         -7.1795    2.9683   50.6778 C.3     1  ZINC000826435081    0.1500
      5 C5         -5.9822    2.3313   49.9695 C.3     1  ZINC000826435081    0.0400
      6 H6         -6.3335    1.5669   49.2764 H       1  ZINC000826435081    0.0800
      7 C7         -5.0536    1.6938   51.0070 C.3     1  ZINC000826435081    0.0300
      8 O8         -3.8835    1.1992   50.3487 O.3     1  ZINC000826435081   -0.3800
      9 C9         -3.1634    2.2045   49.6291 C.3     1  ZINC000826435081    0.0200
     10 C10        -4.0920    2.8421   48.5915 C.3     1  ZINC000826435081    0.0200
     11 O11        -5.2630    3.3363   49.2486 O.3     1  ZINC000826435081   -0.3700
     12 N12        -7.7749    1.3859   53.9428 N.am    1  ZINC000826435081   -0.6400
     13 C13        -7.3955    1.5632   55.2799 C.2     1  ZINC000826435081    0.3300
     14 N14        -8.2099    1.6649   56.3038 N.2     1  ZINC000826435081   -0.2800
     15 N15        -7.4391    1.8322   57.4615 N.pl3   1  ZINC000826435081   -0.3300
     16 C16        -7.9304    1.9783   58.7636 C.ar    1  ZINC000826435081    0.2200
     17 C17        -8.1501    3.2438   59.2867 C.ar    1  ZINC000826435081   -0.1300
     18 C18        -8.6351    3.3876   60.5726 C.ar    1  ZINC000826435081   -0.0500
     19 C19        -8.9042    2.2733   61.3465 C.ar    1  ZINC000826435081   -0.1500
     20 C20        -8.6902    1.0047   60.8390 C.ar    1  ZINC000826435081    0.1500
     21 F21        -8.9547   -0.0811   61.5979 F       1  ZINC000826435081   -0.1100
     22 C22        -8.2070    0.8482   59.5405 C.ar    1  ZINC000826435081   -0.0500
     23 C23        -7.9753   -0.5098   58.9900 C.2     1  ZINC000826435081    0.2100
     24 N24        -6.9630   -1.3088   59.2646 N.2     1  ZINC000826435081   -0.2800
     25 N25        -7.1231   -2.3943   58.5886 N.pl3   1  ZINC000826435081   -0.2300
     26 N26        -8.2040   -2.3088   57.8948 N.2     1  ZINC000826435081   -0.0500
     27 N27        -8.7576   -1.1659   58.1208 N.2     1  ZINC000826435081   -0.2300
     28 C28        -6.1309    1.8275   57.0969 C.2     1  ZINC000826435081    0.0700
     29 C29        -6.0774    1.6568   55.7564 C.2     1  ZINC000826435081   -0.2400
     30 H30        -8.2737    1.3279   51.4652 H       1  ZINC000826435081    0.4000
     31 H31        -7.9688    3.1644   49.9520 H       1  ZINC000826435081    0.0800
     32 H32        -6.8711    3.9055   51.1412 H       1  ZINC000826435081    0.0900
     33 H33        -4.7669    2.4408   51.7471 H       1  ZINC000826435081    0.0700
     34 H34        -5.5696    0.8701   51.5004 H       1  ZINC000826435081    0.1100
     35 H35        -2.8131    2.9688   50.3228 H       1  ZINC000826435081    0.0600
     36 H36        -2.3104    1.7507   49.1244 H       1  ZINC000826435081    0.1100
     37 H37        -3.5761    3.6658   48.0981 H       1  ZINC000826435081    0.1100
     38 H38        -4.3787    2.0951   47.8514 H       1  ZINC000826435081    0.0600
     39 H39        -8.3689    0.6586   53.6996 H       1  ZINC000826435081    0.4100
     40 H40        -7.9414    4.1182   58.6881 H       1  ZINC000826435081    0.1500
     41 H41        -8.8046    4.3753   60.9755 H       1  ZINC000826435081    0.1500
     42 H42        -9.2824    2.3943   62.3509 H       1  ZINC000826435081    0.1500
     43 H43        -6.5231   -3.1564   58.6008 H       1  ZINC000826435081    0.4800
     44 H44        -5.2847    1.9357   57.7593 H       1  ZINC000826435081    0.1800
     45 H45        -5.1802    1.6087   55.1572 H       1  ZINC000826435081    0.1800
@<TRIPOS>BOND
     1     1     2    2
     2     2     3   am
     3     2    12   am
     4     3     4    1
     5     3    30    1
     6     4     5    1
     7     4    31    1
     8     4    32    1
     9     5     6    1
    10     5    11    1
    11     5     7    1
    12     7     8    1
    13     7    33    1
    14     7    34    1
    15     8     9    1
    16     9    10    1
    17     9    35    1
    18     9    36    1
    19    10    11    1
    20    10    37    1
    21    10    38    1
    22    12    13    1
    23    12    39    1
    24    13    29    1
    25    13    14    2
    26    14    15    1
    27    15    16    1
    28    15    28    1
    29    16    22   ar
    30    16    17   ar
    31    17    18   ar
    32    17    40    1
    33    18    19   ar
    34    18    41    1
    35    19    20   ar
    36    19    42    1
    37    20    21    1
    38    20    22   ar
    39    22    23    1
    40    23    27    1
    41    23    24    2
    42    24    25    1
    43    25    26    1
    44    25    43    1
    45    26    27    2
    46    28    29    2
    47    28    44    1
    48    29    45    1
@<TRIPOS>SUBSTRUCTURE
     1 ZINC000826435081        1 TEMP              0 ****  ****    0 ROOT


##########                                Name:    ZINC000561219098
##########                DOCK_Rotatable_Bonds:                   4
##########                         Heavy_Atoms:                  28
##########                    Molecular_Weight:             423.273
##########                DOCK_Rotatable_Bonds:                   4
##########                       Formal_Charge:          0.00999953
##########                     HBond_Acceptors:                   9
##########                        HBond_Donors:                   1
##########                         Heavy_Atoms:                  28
##########                          Grid_Score:          -29.907045
##########                     Grid_vdw_energy:          -29.120401
##########                      Grid_es_energy:           -0.786644
##########           Internal_energy_repulsive:           11.412361

@<TRIPOS>MOLECULE
ZINC000561219098
 45 48 1 0 0
SMALL
USER_CHARGES


@<TRIPOS>ATOM
      1 C1         -1.4890    1.0593   49.7850 C.3     1  ZINC000561219098    0.0700
      2 N2         -2.8086    1.6950   49.7600 N.pl3   1  ZINC000561219098   -0.4500
      3 C3         -3.1307    2.8254   49.0678 C.2     1  ZINC000561219098   -0.0100
      4 C4         -4.4293    3.1052   49.2867 C.2     1  ZINC000561219098   -0.1700
      5 C5         -4.9372    2.1045   50.1531 C.2     1  ZINC000561219098   -0.1100
      6 C6         -6.3271    2.0048   50.6670 C.2     1  ZINC000561219098    0.1600
      7 N7         -7.2386    2.9536   50.6098 N.2     1  ZINC000561219098   -0.2700
      8 N8         -8.4180    2.4791   51.1968 N.pl3   1  ZINC000561219098   -0.4700
      9 C9         -8.1926    1.1979   51.6176 C.2     1  ZINC000561219098    0.0300
     10 C10        -9.1612    0.3171   52.2905 C.2     1  ZINC000561219098    0.5900
     11 O11        -9.5725   -0.6785   51.7258 O.2     1  ZINC000561219098   -0.5000
     12 N12        -9.5924    0.6140   53.5324 N.am    1  ZINC000561219098   -0.6100
     13 C13        -9.1093    1.8129   54.2357 C.3     1  ZINC000561219098    0.0500
     14 C14        -8.6327    1.3955   55.6316 C.3     1  ZINC000561219098    0.0500
     15 O15        -9.6683    0.6533   56.2801 O.3     1  ZINC000561219098   -0.3700
     16 C16       -10.0133   -0.5679   55.6216 C.3     1  ZINC000561219098    0.1200
     17 H17        -9.1271   -1.1959   55.5314 H       1  ZINC000561219098    0.0900
     18 C18       -11.0643   -1.2921   56.4227 C.ar    1  ZINC000561219098   -0.0500
     19 C19       -12.2655   -0.6712   56.7076 C.ar    1  ZINC000561219098   -0.1000
     20 C20       -13.2314   -1.3364   57.4432 C.ar    1  ZINC000561219098    0.1200
     21 F21       -14.4059   -0.7297   57.7215 F       1  ZINC000561219098   -0.1200
     22 C22       -12.9929   -2.6248   57.8934 C.ar    1  ZINC000561219098   -0.0600
     23 Cl23      -14.2034   -3.4605   58.8155 Cl      1  ZINC000561219098   -0.0300
     24 C24       -11.7902   -3.2450   57.6075 C.ar    1  ZINC000561219098   -0.0700
     25 C25       -10.8283   -2.5810   56.8679 C.ar    1  ZINC000561219098   -0.0300
     26 Cl26       -9.3190   -3.3600   56.5088 Cl      1  ZINC000561219098   -0.0400
     27 C27       -10.5649   -0.2479   54.2229 C.3     1  ZINC000561219098    0.0900
     28 C28        -6.8919    0.8824   51.2896 C.2     1  ZINC000561219098   -0.1700
     29 C29        -3.9142    1.2496   50.4197 C.2     1  ZINC000561219098    0.0300
     30 H30        -1.4199    0.3335   48.9748 H       1  ZINC000561219098    0.0800
     31 H31        -0.7174    1.8189   49.6592 H       1  ZINC000561219098    0.0900
     32 H32        -1.3477    0.5526   50.7397 H       1  ZINC000561219098    0.0900
     33 H33        -2.4572    3.3994   48.4486 H       1  ZINC000561219098    0.1700
     34 H34        -4.9821    3.9380   48.8777 H       1  ZINC000561219098    0.1400
     35 H35        -9.2480    2.9725   51.2893 H       1  ZINC000561219098    0.4400
     36 H36        -8.2808    2.2545   53.6817 H       1  ZINC000561219098    0.1000
     37 H37        -9.9190    2.5371   54.3255 H       1  ZINC000561219098    0.0900
     38 H38        -7.7414    0.7746   55.5415 H       1  ZINC000561219098    0.0700
     39 H39        -8.4002    2.2845   56.2179 H       1  ZINC000561219098    0.1200
     40 H40       -12.4505    0.3334   56.3566 H       1  ZINC000561219098    0.1600
     41 H41       -11.6036   -4.2492   57.9585 H       1  ZINC000561219098    0.1600
     42 H42       -11.5208    0.2677   54.3143 H       1  ZINC000561219098    0.0900
     43 H43       -10.6981   -1.1722   53.6606 H       1  ZINC000561219098    0.1100
     44 H44        -6.3953   -0.0569   51.4832 H       1  ZINC000561219098    0.1600
     45 H45        -3.9670    0.3744   51.0503 H       1  ZINC000561219098    0.1700
@<TRIPOS>BOND
     1     1     2    1
     2     1    30    1
     3     1    31    1
     4     1    32    1
     5     2    29    1
     6     2     3    1
     7     3     4    2
     8     3    33    1
     9     4     5    1
    10     4    34    1
    11     5     6    1
    12     5    29    2
    13     6    28    1
    14     6     7    2
    15     7     8    1
    16     8     9    1
    17     8    35    1
    18     9    10    1
    19     9    28    2
    20    10    11    2
    21    10    12   am
    22    12    27    1
    23    12    13    1
    24    13    14    1
    25    13    36    1
    26    13    37    1
    27    14    15    1
    28    14    38    1
    29    14    39    1
    30    15    16    1
    31    16    17    1
    32    16    18    1
    33    16    27    1
    34    18    25   ar
    35    18    19   ar
    36    19    20   ar
    37    19    40    1
    38    20    21    1
    39    20    22   ar
    40    22    23    1
    41    22    24   ar
    42    24    25   ar
    43    24    41    1
    44    25    26    1
    45    27    42    1
    46    27    43    1
    47    28    44    1
    48    29    45    1
@<TRIPOS>SUBSTRUCTURE
     1 ZINC000561219098        1 TEMP              0 ****  ****    0 ROOT


##########                                Name:    ZINC000433533595
##########                DOCK_Rotatable_Bonds:                  10
##########                         Heavy_Atoms:                  24
##########                    Molecular_Weight:             397.312
##########                DOCK_Rotatable_Bonds:                  10
##########                       Formal_Charge:          0.00999916
##########                     HBond_Acceptors:                   5
##########                        HBond_Donors:                   1
##########                         Heavy_Atoms:                  24
##########                          Grid_Score:          -29.906380
##########                     Grid_vdw_energy:          -27.686064
##########                      Grid_es_energy:           -2.220315
##########           Internal_energy_repulsive:           11.360398

@<TRIPOS>MOLECULE
ZINC000433533595
 49 50 1 0 0
SMALL
USER_CHARGES


@<TRIPOS>ATOM
      1 C1         -1.5727    0.8413   47.3325 C.3     1  ZINC000433533595   -0.1500
      2 C2         -2.6457    1.9137   47.5309 C.3     1  ZINC000433533595   -0.1200
      3 C3         -3.0253    1.9879   49.0112 C.3     1  ZINC000433533595   -0.1300
      4 C4         -4.1661    2.9905   49.1955 C.3     1  ZINC000433533595    0.1000
      5 N5         -4.6387    2.9431   50.5815 N.am    1  ZINC000433533595   -0.5500
      6 C6         -4.2098    3.8600   51.4714 C.2     1  ZINC000433533595    0.5100
      7 O7         -3.4322    4.7248   51.1246 O.2     1  ZINC000433533595   -0.5100
      8 C8         -4.6915    3.8117   52.8841 C.2     1  ZINC000433533595    0.5000
      9 O9         -5.5504    4.5832   53.2592 O.2     1  ZINC000433533595   -0.4900
     10 N10        -4.1726    2.9117   53.7426 N.am    1  ZINC000433533595   -0.6300
     11 C11        -4.6237    2.8665   55.0658 C.ar    1  ZINC000433533595    0.1200
     12 C12        -5.7096    2.0716   55.4038 C.ar    1  ZINC000433533595   -0.0600
     13 C13        -6.1536    2.0288   56.7128 C.ar    1  ZINC000433533595   -0.1100
     14 Br14       -7.6332    0.9445   57.1719 Br      1  ZINC000433533595   -0.0400
     15 C15        -5.5173    2.7769   57.6871 C.ar    1  ZINC000433533595   -0.0600
     16 C16        -4.4346    3.5713   57.3574 C.ar    1  ZINC000433533595   -0.1900
     17 C17        -3.9800    3.6154   56.0498 C.ar    1  ZINC000433533595    0.1300
     18 O18        -2.9153    4.3962   55.7245 O.3     1  ZINC000433533595   -0.3100
     19 C19        -1.6655    4.0782   56.3400 C.3     1  ZINC000433533595    0.0800
     20 C20        -0.7085    3.5130   55.2885 C.3     1  ZINC000433533595   -0.1500
     21 C21        -1.0614    5.3440   56.9514 C.3     1  ZINC000433533595   -0.1800
     22 C22        -5.5774    1.8991   51.0000 C.3     1  ZINC000433533595    0.0600
     23 C23        -7.0078    2.3276   51.3329 C.3     1  ZINC000433533595   -0.1900
     24 C24        -6.7215    1.5536   50.0446 C.3     1  ZINC000433533595   -0.1800
     25 H25        -1.9598   -0.1246   47.6571 H       1  ZINC000433533595    0.0500
     26 H26        -1.3023    0.7885   46.2779 H       1  ZINC000433533595    0.0500
     27 H27        -0.6914    1.0960   47.9213 H       1  ZINC000433533595    0.0500
     28 H28        -2.2585    2.8795   47.2062 H       1  ZINC000433533595    0.0700
     29 H29        -3.5271    1.6591   46.9421 H       1  ZINC000433533595    0.0600
     30 H30        -3.3471    1.0043   49.3535 H       1  ZINC000433533595    0.0600
     31 H31        -2.1611    2.3099   49.5921 H       1  ZINC000433533595    0.0700
     32 H32        -3.8078    3.9945   48.9680 H       1  ZINC000433533595    0.1100
     33 H33        -4.9856    2.7362   48.5234 H       1  ZINC000433533595    0.0800
     34 H34        -3.4862    2.2954   53.4429 H       1  ZINC000433533595    0.4300
     35 H35        -6.2081    1.4869   54.6448 H       1  ZINC000433533595    0.1600
     36 H36        -5.8677    2.7407   58.7081 H       1  ZINC000433533595    0.1400
     37 H37        -3.9403    4.1540   58.1207 H       1  ZINC000433533595    0.1500
     38 H38        -1.8243    3.3367   57.1229 H       1  ZINC000433533595    0.0800
     39 H39        -0.5497    4.2545   54.5057 H       1  ZINC000433533595    0.0700
     40 H40         0.2449    3.2704   55.7580 H       1  ZINC000433533595    0.0800
     41 H41        -1.1388    2.6112   54.8530 H       1  ZINC000433533595    0.0700
     42 H42        -0.9027    6.0856   56.1684 H       1  ZINC000433533595    0.0700
     43 H43        -1.7433    5.7468   57.7004 H       1  ZINC000433533595    0.0600
     44 H44        -0.1081    5.1015   57.4208 H       1  ZINC000433533595    0.0800
     45 H45        -5.1464    1.0860   51.5840 H       1  ZINC000433533595    0.1400
     46 H46        -7.5182    1.7964   52.1363 H       1  ZINC000433533595    0.0900
     47 H47        -7.2506    3.3862   51.2406 H       1  ZINC000433533595    0.1400
     48 H48        -6.7756    2.1030   49.1048 H       1  ZINC000433533595    0.1000
     49 H49        -7.0433    0.5132   50.0005 H       1  ZINC000433533595    0.1000
@<TRIPOS>BOND
     1     1     2    1
     2     1    25    1
     3     1    26    1
     4     1    27    1
     5     2     3    1
     6     2    28    1
     7     2    29    1
     8     3     4    1
     9     3    30    1
    10     3    31    1
    11     4     5    1
    12     4    32    1
    13     4    33    1
    14     5     6   am
    15     5    22    1
    16     6     7    2
    17     6     8    1
    18     8     9    2
    19     8    10   am
    20    10    11    1
    21    10    34    1
    22    11    17   ar
    23    11    12   ar
    24    12    13   ar
    25    12    35    1
    26    13    14    1
    27    13    15   ar
    28    15    16   ar
    29    15    36    1
    30    16    17   ar
    31    16    37    1
    32    17    18    1
    33    18    19    1
    34    19    20    1
    35    19    21    1
    36    19    38    1
    37    20    39    1
    38    20    40    1
    39    20    41    1
    40    21    42    1
    41    21    43    1
    42    21    44    1
    43    22    24    1
    44    22    23    1
    45    22    45    1
    46    23    24    1
    47    23    46    1
    48    23    47    1
    49    24    48    1
    50    24    49    1
@<TRIPOS>SUBSTRUCTURE
     1 ZINC000433533595        1 TEMP              0 ****  ****    0 ROOT


##########                                Name:    ZINC000523878927
##########                DOCK_Rotatable_Bonds:                   8
##########                         Heavy_Atoms:                  27
##########                    Molecular_Weight:             376.474
##########                DOCK_Rotatable_Bonds:                   8
##########                       Formal_Charge:          0.00999957
##########                     HBond_Acceptors:                   7
##########                        HBond_Donors:                   3
##########                         Heavy_Atoms:                  27
##########                          Grid_Score:          -29.904875
##########                     Grid_vdw_energy:          -28.546726
##########                      Grid_es_energy:           -1.358149
##########           Internal_energy_repulsive:            6.359305

@<TRIPOS>MOLECULE
ZINC000523878927
 56 58 1 0 0
SMALL
USER_CHARGES


@<TRIPOS>ATOM
      1 C1        -12.6596    0.7997   56.9406 C.3     1  ZINC000523878927   -0.1500
      2 C2        -12.3186   -0.6559   56.6151 C.3     1  ZINC000523878927   -0.0900
      3 H3        -13.1943   -1.2815   56.7880 H       1  ZINC000523878927    0.0700
      4 C4        -11.1719   -1.1242   57.5133 C.3     1  ZINC000523878927   -0.1200
      5 C5         -9.9428   -0.2459   57.2707 C.3     1  ZINC000523878927   -0.1200
      6 C6         -9.5194   -0.3549   55.8044 C.3     1  ZINC000523878927   -0.1100
      7 C7        -10.6662    0.1134   54.9063 C.3     1  ZINC000523878927   -0.1000
      8 H8        -10.9090    1.1503   55.1381 H       1  ZINC000523878927    0.0800
      9 C9        -10.2428    0.0042   53.4401 C.3     1  ZINC000523878927    0.1400
     10 N10        -9.0496    0.8237   53.2141 N.am    1  ZINC000523878927   -0.7400
     11 C11        -8.1818    0.4953   52.2366 C.2     1  ZINC000523878927    0.7200
     12 O12        -8.3885   -0.4818   51.5432 O.2     1  ZINC000523878927   -0.5800
     13 N13        -7.0850    1.2501   52.0277 N.am    1  ZINC000523878927   -0.6400
     14 C14        -6.7134    2.4556   52.7906 C.3     1  ZINC000523878927    0.1000
     15 C15        -5.1778    2.5730   52.6237 C.3     1  ZINC000523878927   -0.1400
     16 C16        -4.9874    2.1055   51.1565 C.3     1  ZINC000523878927    0.1500
     17 H17        -5.1725    2.9259   50.4633 H       1  ZINC000523878927    0.1100
     18 N18        -3.6443    1.5549   50.9582 N.am    1  ZINC000523878927   -0.7300
     19 C19        -3.0494    1.6474   49.7524 C.2     1  ZINC000523878927    0.7100
     20 O20        -3.6267    2.1892   48.8295 O.2     1  ZINC000523878927   -0.5700
     21 N21        -1.8145    1.1395   49.5695 N.am    1  ZINC000523878927   -0.6800
     22 C22        -1.1963    1.2356   48.3163 C.ar    1  ZINC000523878927    0.1500
     23 C23        -0.2952    2.2610   48.0626 C.ar    1  ZINC000523878927   -0.1200
     24 C24         0.3137    2.3537   46.8264 C.ar    1  ZINC000523878927   -0.1300
     25 C25         0.0257    1.4253   45.8403 C.ar    1  ZINC000523878927    0.0800
     26 F26         0.6220    1.5179   44.6316 F       1  ZINC000523878927   -0.1400
     27 C27        -0.8722    0.4016   46.0916 C.ar    1  ZINC000523878927   -0.1300
     28 C28        -1.4793    0.3023   47.3282 C.ar    1  ZINC000523878927   -0.0900
     29 C29        -6.0575    1.0039   51.0053 C.3     1  ZINC000523878927    0.1200
     30 C30       -11.8953   -0.7649   55.1489 C.3     1  ZINC000523878927   -0.1100
     31 H31       -13.4766    1.1333   56.3008 H       1  ZINC000523878927    0.0500
     32 H32       -12.9612    0.8774   57.9851 H       1  ZINC000523878927    0.0500
     33 H33       -11.7840    1.4254   56.7678 H       1  ZINC000523878927    0.0600
     34 H34       -11.4735   -1.0464   58.5578 H       1  ZINC000523878927    0.0600
     35 H35       -10.9290   -2.1612   57.2813 H       1  ZINC000523878927    0.0600
     36 H36       -10.1857    0.7910   57.5025 H       1  ZINC000523878927    0.0700
     37 H37        -9.1259   -0.5796   57.9105 H       1  ZINC000523878927    0.0600
     38 H38        -8.6438    0.2708   55.6316 H       1  ZINC000523878927    0.0600
     39 H39        -9.2765   -1.3920   55.5726 H       1  ZINC000523878927    0.0600
     40 H40       -10.0195   -1.0358   53.2028 H       1  ZINC000523878927    0.0700
     41 H41       -11.0523    0.3571   52.8010 H       1  ZINC000523878927    0.0700
     42 H42        -8.8841    1.6025   53.7681 H       1  ZINC000523878927    0.3900
     43 H43        -7.2083    3.3341   52.3765 H       1  ZINC000523878927    0.0800
     44 H44        -6.9725    2.3338   53.8424 H       1  ZINC000523878927    0.0800
     45 H45        -4.8487    3.6043   52.7509 H       1  ZINC000523878927    0.1000
     46 H46        -4.6578    1.9104   53.3155 H       1  ZINC000523878927    0.0800
     47 H47        -3.1833    1.1238   51.6947 H       1  ZINC000523878927    0.4000
     48 H48        -1.3539    0.7074   50.3057 H       1  ZINC000523878927    0.4100
     49 H49        -0.0710    2.9858   48.8313 H       1  ZINC000523878927    0.1400
     50 H50         1.0146    3.1512   46.6286 H       1  ZINC000523878927    0.1400
     51 H51        -1.0955   -0.3217   45.3211 H       1  ZINC000523878927    0.1400
     52 H52        -2.1794   -0.4965   47.5239 H       1  ZINC000523878927    0.1500
     53 H53        -5.6046    0.0240   51.1562 H       1  ZINC000523878927    0.0700
     54 H54        -6.5076    1.0580   50.0141 H       1  ZINC000523878927    0.0800
     55 H55       -11.6523   -1.8019   54.9170 H       1  ZINC000523878927    0.0700
     56 H56       -12.7123   -0.4313   54.5090 H       1  ZINC000523878927    0.0700
@<TRIPOS>BOND
     1     1     2    1
     2     1    31    1
     3     1    32    1
     4     1    33    1
     5     2     3    1
     6     2    30    1
     7     2     4    1
     8     4     5    1
     9     4    34    1
    10     4    35    1
    11     5     6    1
    12     5    36    1
    13     5    37    1
    14     6     7    1
    15     6    38    1
    16     6    39    1
    17     7     8    1
    18     7     9    1
    19     7    30    1
    20     9    10    1
    21     9    40    1
    22     9    41    1
    23    10    11   am
    24    10    42    1
    25    11    12    2
    26    11    13   am
    27    13    29    1
    28    13    14    1
    29    14    15    1
    30    14    43    1
    31    14    44    1
    32    15    16    1
    33    15    45    1
    34    15    46    1
    35    16    17    1
    36    16    18    1
    37    16    29    1
    38    18    19   am
    39    18    47    1
    40    19    20    2
    41    19    21   am
    42    21    22    1
    43    21    48    1
    44    22    28   ar
    45    22    23   ar
    46    23    24   ar
    47    23    49    1
    48    24    25   ar
    49    24    50    1
    50    25    26    1
    51    25    27   ar
    52    27    28   ar
    53    27    51    1
    54    28    52    1
    55    29    53    1
    56    29    54    1
    57    30    55    1
    58    30    56    1
@<TRIPOS>SUBSTRUCTURE
     1 ZINC000523878927        1 TEMP              0 ****  ****    0 ROOT


##########                                Name:    ZINC001513543414
##########                DOCK_Rotatable_Bonds:                   6
##########                         Heavy_Atoms:                  26
##########                    Molecular_Weight:             364.488
##########                DOCK_Rotatable_Bonds:                   6
##########                       Formal_Charge:         -0.00999974
##########                     HBond_Acceptors:                   7
##########                        HBond_Donors:                   0
##########                         Heavy_Atoms:                  26
##########                          Grid_Score:          -29.885214
##########                     Grid_vdw_energy:          -29.365921
##########                      Grid_es_energy:           -0.519292
##########           Internal_energy_repulsive:           11.421401

@<TRIPOS>MOLECULE
ZINC001513543414
 58 61 1 0 0
SMALL
USER_CHARGES


@<TRIPOS>ATOM
      1 C1         -8.2419    0.8682   57.9991 C.3     1  ZINC001513543414   -0.1500
      2 C2         -6.8208    1.4343   58.0286 C.3     1  ZINC001513543414   -0.1200
      3 C3         -6.7374    2.6515   57.1055 C.3     1  ZINC001513543414    0.1100
      4 C4         -7.4593    3.8388   57.7459 C.3     1  ZINC001513543414   -0.1500
      5 C5         -5.2589    3.0126   56.8470 C.3     1  ZINC001513543414   -0.1500
      6 C6         -5.2736    3.4069   55.3449 C.3     1  ZINC001513543414   -0.1500
      7 C7         -6.3527    2.4393   54.7973 C.3     1  ZINC001513543414    0.0700
      8 H8         -5.9167    1.4604   54.5977 H       1  ZINC001513543414    0.0800
      9 C9         -6.9806    3.0097   53.5240 C.3     1  ZINC001513543414    0.1100
     10 N10        -6.9945    1.9795   52.4825 N.pl3   1  ZINC001513543414   -0.4600
     11 C11        -7.9659    1.0431   52.2606 C.2     1  ZINC001513543414    0.1900
     12 C12        -9.2390    0.8727   53.0488 C.3     1  ZINC001513543414    0.1800
     13 H13        -9.0381    0.9681   54.1159 H       1  ZINC001513543414    0.1000
     14 C14       -10.2912    1.9195   52.6038 C.3     1  ZINC001513543414   -0.1500
     15 C15       -11.6090    1.1998   53.0005 C.3     1  ZINC001513543414   -0.1500
     16 C16       -11.2622   -0.2828   52.7456 C.3     1  ZINC001513543414    0.0500
     17 O17        -9.8337   -0.4038   52.7655 O.3     1  ZINC001513543414   -0.3500
     18 N18        -7.5872    0.3260   51.2408 N.2     1  ZINC001513543414   -0.2600
     19 N19        -6.4514    0.7423   50.8067 N.2     1  ZINC001513543414   -0.3100
     20 C20        -6.0435    1.7591   51.5290 C.2     1  ZINC001513543414    0.3400
     21 N21        -4.8655    2.4693   51.3608 N.3     1  ZINC001513543414   -0.4500
     22 C22        -4.7943    3.0648   50.0095 C.3     1  ZINC001513543414    0.0500
     23 C23        -3.2901    3.0306   49.6409 C.3     1  ZINC001513543414   -0.1500
     24 C24        -2.8452    1.6817   50.2647 C.3     1  ZINC001513543414    0.0700
     25 H25        -3.0778    0.8526   49.5964 H       1  ZINC001513543414    0.0800
     26 O26        -1.4500    1.7034   50.5733 O.3     1  ZINC001513543414   -0.3800
     27 C27        -0.6011    1.7351   49.4243 C.3     1  ZINC001513543414    0.0300
     28 C28        -3.6915    1.5983   51.5525 C.3     1  ZINC001513543414    0.0600
     29 O29        -7.3354    2.3441   55.8406 O.3     1  ZINC001513543414   -0.3600
     30 H30        -8.3013    0.0010   58.6568 H       1  ZINC001513543414    0.0500
     31 H31        -8.9436    1.6302   58.3385 H       1  ZINC001513543414    0.0500
     32 H32        -8.4933    0.5702   56.9813 H       1  ZINC001513543414    0.0600
     33 H33        -6.5694    1.7323   59.0464 H       1  ZINC001513543414    0.0700
     34 H34        -6.1191    0.6723   57.6893 H       1  ZINC001513543414    0.0600
     35 H35        -6.9820    4.0856   58.6943 H       1  ZINC001513543414    0.0700
     36 H36        -7.4072    4.6989   57.0783 H       1  ZINC001513543414    0.0600
     37 H37        -8.5029    3.5778   57.9214 H       1  ZINC001513543414    0.0700
     38 H38        -4.9513    3.8552   57.4663 H       1  ZINC001513543414    0.0900
     39 H39        -4.6138    2.1501   57.0153 H       1  ZINC001513543414    0.0800
     40 H40        -5.5754    4.4463   55.2147 H       1  ZINC001513543414    0.0800
     41 H41        -4.3056    3.2197   54.8801 H       1  ZINC001513543414    0.0900
     42 H42        -8.0016    3.3283   53.7336 H       1  ZINC001513543414    0.1000
     43 H43        -6.3963    3.8641   53.1821 H       1  ZINC001513543414    0.1100
     44 H44       -10.1728    2.8535   53.1532 H       1  ZINC001513543414    0.0900
     45 H45       -10.2451    2.0900   51.5283 H       1  ZINC001513543414    0.0900
     46 H46       -11.8418    1.3685   54.0520 H       1  ZINC001513543414    0.0800
     47 H47       -12.4332    1.5205   52.3633 H       1  ZINC001513543414    0.0900
     48 H48       -11.6955   -0.9039   53.5295 H       1  ZINC001513543414    0.0700
     49 H49       -11.6468   -0.5905   51.7733 H       1  ZINC001513543414    0.0700
     50 H50        -5.3720    2.4701   49.3018 H       1  ZINC001513543414    0.0600
     51 H51        -5.1572    4.0925   50.0280 H       1  ZINC001513543414    0.0900
     52 H52        -3.1530    3.0248   48.5595 H       1  ZINC001513543414    0.0800
     53 H53        -2.7575    3.8657   50.0959 H       1  ZINC001513543414    0.0900
     54 H54         0.4412    1.7502   49.7429 H       1  ZINC001513543414    0.0900
     55 H55        -0.7819    0.8500   48.8145 H       1  ZINC001513543414    0.0400
     56 H56        -0.8151    2.6295   48.8390 H       1  ZINC001513543414    0.0400
     57 H57        -3.1064    1.9465   52.4038 H       1  ZINC001513543414    0.1000
     58 H58        -4.0151    0.5706   51.7176 H       1  ZINC001513543414    0.0900
@<TRIPOS>BOND
     1     1     2    1
     2     1    30    1
     3     1    31    1
     4     1    32    1
     5     2     3    1
     6     2    33    1
     7     2    34    1
     8     3    29    1
     9     3     4    1
    10     3     5    1
    11     4    35    1
    12     4    36    1
    13     4    37    1
    14     5     6    1
    15     5    38    1
    16     5    39    1
    17     6     7    1
    18     6    40    1
    19     6    41    1
    20     7     8    1
    21     7     9    1
    22     7    29    1
    23     9    10    1
    24     9    42    1
    25     9    43    1
    26    10    20    1
    27    10    11    1
    28    11    12    1
    29    11    18    2
    30    12    13    1
    31    12    17    1
    32    12    14    1
    33    14    15    1
    34    14    44    1
    35    14    45    1
    36    15    16    1
    37    15    46    1
    38    15    47    1
    39    16    17    1
    40    16    48    1
    41    16    49    1
    42    18    19    1
    43    19    20    2
    44    20    21    1
    45    21    28    1
    46    21    22    1
    47    22    23    1
    48    22    50    1
    49    22    51    1
    50    23    24    1
    51    23    52    1
    52    23    53    1
    53    24    25    1
    54    24    26    1
    55    24    28    1
    56    26    27    1
    57    27    54    1
    58    27    55    1
    59    27    56    1
    60    28    57    1
    61    28    58    1
@<TRIPOS>SUBSTRUCTURE
     1 ZINC001513543414        1 TEMP              0 ****  ****    0 ROOT


##########                                Name:    ZINC000438893617
##########                DOCK_Rotatable_Bonds:                   5
##########                         Heavy_Atoms:                  29
##########                    Molecular_Weight:             412.596
##########                DOCK_Rotatable_Bonds:                   5
##########                       Formal_Charge:           0.0600001
##########                     HBond_Acceptors:                   5
##########                        HBond_Donors:                   0
##########                         Heavy_Atoms:                  29
##########                          Grid_Score:          -29.880598
##########                     Grid_vdw_energy:          -28.751244
##########                      Grid_es_energy:           -1.129355
##########           Internal_energy_repulsive:          165.648346

@<TRIPOS>MOLECULE
ZINC000438893617
 61 66 1 0 0
SMALL
USER_CHARGES


@<TRIPOS>ATOM
      1 C1        -12.3684    0.6195   51.6766 C.3     1  ZINC000438893617   -0.1000
      2 C2        -12.4546    1.0265   53.1249 C.2     1  ZINC000438893617   -0.0900
      3 C3        -11.4015    0.9951   53.9430 C.2     1  ZINC000438893617   -0.1600
      4 C4        -10.0115    0.5620   53.5536 C.3     1  ZINC000438893617   -0.0400
      5 H5         -9.9039   -0.4897   53.2883 H       1  ZINC000438893617    0.1400
      6 C6         -8.8364    1.2349   54.2657 C.3     1  ZINC000438893617   -0.1400
      7 C7         -9.1408    1.5724   52.8041 C.3     1  ZINC000438893617   -0.1800
      8 H8         -9.5730    2.5504   52.5928 H       1  ZINC000438893617    0.1300
      9 C9         -8.1992    1.0377   51.7558 C.2     1  ZINC000438893617    0.5500
     10 O10        -8.3843   -0.0617   51.2785 O.2     1  ZINC000438893617   -0.5300
     11 N11        -7.1515    1.7815   51.3489 N.am    1  ZINC000438893617   -0.6100
     12 C12        -6.9104    3.1121   51.9242 C.3     1  ZINC000438893617    0.0900
     13 C13        -5.4833    3.1526   52.4846 C.3     1  ZINC000438893617    0.1000
     14 N14        -4.5611    2.6471   51.4579 N.am    1  ZINC000438893617   -0.6100
     15 C15        -3.5129    3.3905   51.0516 C.2     1  ZINC000438893617    0.5300
     16 O16        -3.3239    4.4871   51.5339 O.2     1  ZINC000438893617   -0.5300
     17 C17        -2.5756    2.8590   49.9979 C.3     1  ZINC000438893617   -0.0700
     18 C18        -1.4508    3.8684   49.7598 C.3     1  ZINC000438893617   -0.1100
     19 C19        -0.4994    3.3288   48.6901 C.3     1  ZINC000438893617   -0.0800
     20 C20        -1.2700    3.1070   47.3870 C.3     1  ZINC000438893617   -0.1100
     21 C21        -2.3947    2.0975   47.6253 C.3     1  ZINC000438893617   -0.0800
     22 C22        -1.7974    0.7702   48.0967 C.3     1  ZINC000438893617   -0.1100
     23 C23        -1.0268    0.9920   49.3997 C.3     1  ZINC000438893617   -0.0900
     24 C24         0.0981    2.0015   49.1615 C.3     1  ZINC000438893617   -0.1100
     25 C25        -1.9782    1.5317   50.4695 C.3     1  ZINC000438893617   -0.0900
     26 C26        -3.3462    2.6372   48.6949 C.3     1  ZINC000438893617   -0.1200
     27 C27        -4.8022    1.3165   50.8825 C.3     1  ZINC000438893617    0.0700
     28 C28        -6.2262    1.2737   50.3262 C.3     1  ZINC000438893617    0.1000
     29 S29       -11.8830    1.5369   55.5455 S.3     1  ZINC000438893617    0.1000
     30 C30       -13.5363    1.7830   54.9982 C.2     1  ZINC000438893617   -0.2100
     31 C31       -13.6314    1.4669   53.7059 C.2     1  ZINC000438893617   -0.1300
     32 H32       -12.1135    1.4882   51.0695 H       1  ZINC000438893617    0.0700
     33 H33       -11.5995   -0.1442   51.5589 H       1  ZINC000438893617    0.0700
     34 H34       -13.3298    0.2201   51.3535 H       1  ZINC000438893617    0.0700
     35 H35        -9.0686    1.9908   55.0159 H       1  ZINC000438893617    0.1100
     36 H36        -7.9554    0.6259   54.4686 H       1  ZINC000438893617    0.1100
     37 H37        -7.0209    3.8711   51.1497 H       1  ZINC000438893617    0.0800
     38 H38        -7.6239    3.2985   52.7268 H       1  ZINC000438893617    0.1000
     39 H39        -5.2195    4.1789   52.7399 H       1  ZINC000438893617    0.1100
     40 H40        -5.4213    2.5244   53.3731 H       1  ZINC000438893617    0.0700
     41 H41        -1.8764    4.8140   49.4238 H       1  ZINC000438893617    0.0800
     42 H42        -0.9018    4.0265   50.6881 H       1  ZINC000438893617    0.0700
     43 H43         0.3019    4.0480   48.5203 H       1  ZINC000438893617    0.0800
     44 H44        -1.6956    4.0526   47.0511 H       1  ZINC000438893617    0.0600
     45 H45        -0.5921    2.7226   46.6249 H       1  ZINC000438893617    0.0700
     46 H46        -2.9437    1.9395   46.6970 H       1  ZINC000438893617    0.0800
     47 H47        -2.5986    0.0510   48.2664 H       1  ZINC000438893617    0.0600
     48 H48        -1.1195    0.3857   47.3347 H       1  ZINC000438893617    0.0700
     49 H49        -0.6012    0.0464   49.7357 H       1  ZINC000438893617    0.0700
     50 H50         0.7759    1.6170   48.3995 H       1  ZINC000438893617    0.0700
     51 H51         0.6471    2.1595   50.0898 H       1  ZINC000438893617    0.0600
     52 H52        -1.4292    1.6897   51.3978 H       1  ZINC000438893617    0.0700
     53 H53        -2.7796    0.8125   50.6392 H       1  ZINC000438893617    0.0700
     54 H54        -4.1476    1.9179   48.8647 H       1  ZINC000438893617    0.0700
     55 H55        -3.7718    3.5827   48.3590 H       1  ZINC000438893617    0.0800
     56 H56        -4.0887    1.1302   50.0799 H       1  ZINC000438893617    0.1300
     57 H57        -4.6917    0.5575   51.6571 H       1  ZINC000438893617    0.0800
     58 H58        -6.4886    0.2470   50.0712 H       1  ZINC000438893617    0.1100
     59 H59        -6.2908    1.9019   49.4377 H       1  ZINC000438893617    0.0700
     60 H60       -14.3491    2.1398   55.6134 H       1  ZINC000438893617    0.1700
     61 H61       -14.5582    1.5412   53.1563 H       1  ZINC000438893617    0.1400
@<TRIPOS>BOND
     1     1     2    1
     2     1    32    1
     3     1    33    1
     4     1    34    1
     5     2    31    1
     6     2     3    2
     7     3     4    1
     8     3    29    1
     9     4     5    1
    10     4     7    1
    11     4     6    1
    12     6     7    1
    13     6    35    1
    14     6    36    1
    15     7     8    1
    16     7     9    1
    17     9    10    2
    18     9    11   am
    19    11    28    1
    20    11    12    1
    21    12    13    1
    22    12    37    1
    23    12    38    1
    24    13    14    1
    25    13    39    1
    26    13    40    1
    27    14    15   am
    28    14    27    1
    29    15    16    2
    30    15    17    1
    31    17    25    1
    32    17    26    1
    33    17    18    1
    34    18    19    1
    35    18    41    1
    36    18    42    1
    37    19    24    1
    38    19    20    1
    39    19    43    1
    40    20    21    1
    41    20    44    1
    42    20    45    1
    43    21    22    1
    44    21    26    1
    45    21    46    1
    46    22    23    1
    47    22    47    1
    48    22    48    1
    49    23    24    1
    50    23    25    1
    51    23    49    1
    52    24    50    1
    53    24    51    1
    54    25    52    1
    55    25    53    1
    56    26    54    1
    57    26    55    1
    58    27    28    1
    59    27    56    1
    60    27    57    1
    61    28    58    1
    62    28    59    1
    63    29    30    1
    64    30    31    2
    65    30    60    1
    66    31    61    1
@<TRIPOS>SUBSTRUCTURE
     1 ZINC000438893617        1 TEMP              0 ****  ****    0 ROOT


##########                                Name:    ZINC001087843226
##########                DOCK_Rotatable_Bonds:                   6
##########                         Heavy_Atoms:                  27
##########                    Molecular_Weight:             368.479
##########                DOCK_Rotatable_Bonds:                   6
##########                       Formal_Charge:        -4.47035e-07
##########                     HBond_Acceptors:                   6
##########                        HBond_Donors:                   1
##########                         Heavy_Atoms:                  27
##########                          Grid_Score:          -29.855761
##########                     Grid_vdw_energy:          -29.836111
##########                      Grid_es_energy:           -0.019650
##########           Internal_energy_repulsive:           26.513443

@<TRIPOS>MOLECULE
ZINC001087843226
 55 58 1 0 0
SMALL
USER_CHARGES


@<TRIPOS>ATOM
      1 C1         -7.3261   -1.3156   58.3154 C.3     1  ZINC001087843226   -0.1500
      2 C2         -8.8170   -1.6581   58.3447 C.3     1  ZINC001087843226   -0.1500
      3 C3         -9.4052   -1.4963   56.9415 C.3     1  ZINC001087843226    0.0700
      4 H4         -8.8131   -2.0640   56.2237 H       1  ZINC001087843226    0.1000
      5 C5         -9.4194   -0.0044   56.5471 C.3     1  ZINC001087843226    0.1300
      6 H6         -9.4120    0.6288   57.4342 H       1  ZINC001087843226    0.1000
      7 N7         -8.2838    0.3123   55.6774 N.am    1  ZINC001087843226   -0.7200
      8 C8         -7.9463    1.5973   55.4508 C.2     1  ZINC001087843226    0.5600
      9 O9         -8.5850    2.4935   55.9669 O.2     1  ZINC001087843226   -0.5300
     10 C10        -6.7991    1.9168   54.5746 C.ar    1  ZINC001087843226   -0.1400
     11 C11        -5.6675    2.5362   55.1041 C.ar    1  ZINC001087843226   -0.0800
     12 C12        -4.6001    2.8318   54.2813 C.ar    1  ZINC001087843226   -0.1300
     13 C13        -4.6528    2.5147   52.9370 C.ar    1  ZINC001087843226   -0.0400
     14 C14        -3.4822    2.8411   52.0456 C.3     1  ZINC001087843226   -0.1200
     15 C15        -5.7738    1.8984   52.4021 C.ar    1  ZINC001087843226   -0.1100
     16 C16        -6.8453    1.5932   53.2152 C.ar    1  ZINC001087843226   -0.0300
     17 C17        -7.9360    0.9316   52.4007 C.3     1  ZINC001087843226   -0.0800
     18 C18        -7.5972    1.2595   50.9309 C.3     1  ZINC001087843226   -0.1200
     19 C19        -6.0659    1.4582   50.9832 C.3     1  ZINC001087843226   -0.0800
     20 C20       -10.7600    0.1415   55.7801 C.3     1  ZINC001087843226   -0.1400
     21 C21       -11.6770   -0.8291   56.5653 C.3     1  ZINC001087843226    0.0400
     22 N22       -10.8016   -1.9692   56.9254 N.3     1  ZINC001087843226   -0.5100
     23 C23       -11.1812   -2.5338   58.2274 C.3     1  ZINC001087843226    0.1100
     24 C24       -12.6517   -2.8634   58.2226 C.2     1  ZINC001087843226    0.0800
     25 N25       -13.2239   -3.7328   57.4444 N.2     1  ZINC001087843226   -0.2700
     26 O26       -14.6074   -3.7383   57.7588 O.3     1  ZINC001087843226    0.0300
     27 N27       -14.7859   -2.7871   58.7963 N.2     1  ZINC001087843226   -0.2800
     28 C28       -13.6194   -2.2813   59.0651 C.2     1  ZINC001087843226    0.0900
     29 C29       -13.3461   -1.2284   60.1080 C.3     1  ZINC001087843226   -0.0900
     30 H30        -6.9222   -1.3641   59.3266 H       1  ZINC001087843226    0.0600
     31 H31        -6.8018   -2.0295   57.6801 H       1  ZINC001087843226    0.0600
     32 H32        -7.1922   -0.3093   57.9185 H       1  ZINC001087843226    0.0600
     33 H33        -8.9467   -2.6883   58.6765 H       1  ZINC001087843226    0.0800
     34 H34        -9.3304   -0.9872   59.0334 H       1  ZINC001087843226    0.0700
     35 H35        -7.7748   -0.4029   55.2646 H       1  ZINC001087843226    0.4000
     36 H36        -5.6268    2.7841   56.1545 H       1  ZINC001087843226    0.1300
     37 H37        -3.7224    3.3119   54.6881 H       1  ZINC001087843226    0.1300
     38 H38        -2.7902    1.9991   52.0319 H       1  ZINC001087843226    0.0800
     39 H39        -3.8389    3.0349   51.0340 H       1  ZINC001087843226    0.0700
     40 H40        -2.9711    3.7253   52.4264 H       1  ZINC001087843226    0.0700
     41 H41        -7.9257   -0.1467   52.5598 H       1  ZINC001087843226    0.0800
     42 H42        -8.9093    1.3446   52.6658 H       1  ZINC001087843226    0.0900
     43 H43        -7.8556    0.4255   50.2783 H       1  ZINC001087843226    0.0800
     44 H44        -8.0992    2.1728   50.6120 H       1  ZINC001087843226    0.0700
     45 H45        -5.7609    2.2333   50.2802 H       1  ZINC001087843226    0.0800
     46 H46        -5.5551    0.5216   50.7598 H       1  ZINC001087843226    0.0800
     47 H47       -11.1334    1.1640   55.8376 H       1  ZINC001087843226    0.0800
     48 H48       -10.6529   -0.1757   54.7428 H       1  ZINC001087843226    0.0800
     49 H49       -12.0610   -0.3453   57.4635 H       1  ZINC001087843226    0.0600
     50 H50       -12.4991   -1.1680   55.9349 H       1  ZINC001087843226    0.0800
     51 H51       -10.6061   -3.4412   58.4116 H       1  ZINC001087843226    0.1200
     52 H52       -10.9744   -1.8067   59.0128 H       1  ZINC001087843226    0.0700
     53 H53       -13.0314   -1.7081   61.0348 H       1  ZINC001087843226    0.1000
     54 H54       -12.5563   -0.5648   59.7560 H       1  ZINC001087843226    0.0900
     55 H55       -14.2529   -0.6509   60.2875 H       1  ZINC001087843226    0.0900
@<TRIPOS>BOND
     1     1     2    1
     2     1    30    1
     3     1    31    1
     4     1    32    1
     5     2     3    1
     6     2    33    1
     7     2    34    1
     8     3     4    1
     9     3    22    1
    10     3     5    1
    11     5     6    1
    12     5     7    1
    13     5    20    1
    14     7     8   am
    15     7    35    1
    16     8     9    2
    17     8    10    1
    18    10    16   ar
    19    10    11   ar
    20    11    12   ar
    21    11    36    1
    22    12    13   ar
    23    12    37    1
    24    13    14    1
    25    13    15   ar
    26    14    38    1
    27    14    39    1
    28    14    40    1
    29    15    19    1
    30    15    16   ar
    31    16    17    1
    32    17    18    1
    33    17    41    1
    34    17    42    1
    35    18    19    1
    36    18    43    1
    37    18    44    1
    38    19    45    1
    39    19    46    1
    40    20    21    1
    41    20    47    1
    42    20    48    1
    43    21    22    1
    44    21    49    1
    45    21    50    1
    46    22    23    1
    47    23    24    1
    48    23    51    1
    49    23    52    1
    50    24    28    1
    51    24    25    2
    52    25    26    1
    53    26    27    1
    54    27    28    2
    55    28    29    1
    56    29    53    1
    57    29    54    1
    58    29    55    1
@<TRIPOS>SUBSTRUCTURE
     1 ZINC001087843226        1 TEMP              0 ****  ****    0 ROOT


##########                                Name:    ZINC000944933040
##########                DOCK_Rotatable_Bonds:                   4
##########                         Heavy_Atoms:                  26
##########                    Molecular_Weight:             354.449
##########                DOCK_Rotatable_Bonds:                   4
##########                       Formal_Charge:           0.0100002
##########                     HBond_Acceptors:                   5
##########                        HBond_Donors:                   0
##########                         Heavy_Atoms:                  26
##########                          Grid_Score:          -29.852654
##########                     Grid_vdw_energy:          -28.551889
##########                      Grid_es_energy:           -1.300765
##########           Internal_energy_repulsive:            8.150051

@<TRIPOS>MOLECULE
ZINC000944933040
 52 57 1 0 0
SMALL
USER_CHARGES


@<TRIPOS>ATOM
      1 O1         -1.8761    3.8261   49.4423 O.2     1  ZINC000944933040   -0.5200
      2 C2         -2.2272    3.1048   50.3563 C.2     1  ZINC000944933040    0.6400
      3 C3         -1.3457    2.8663   51.4595 C.1     1  ZINC000944933040   -0.2200
      4 C4         -0.6231    2.6708   52.3638 C.1     1  ZINC000944933040   -0.0400
      5 C5          0.2830    2.4256   53.4976 C.3     1  ZINC000944933040   -0.0700
      6 C6          0.9634    3.6396   54.1335 C.3     1  ZINC000944933040   -0.1600
      7 C7         -0.1620    2.9170   54.8766 C.3     1  ZINC000944933040   -0.1600
      8 N8         -3.4481    2.5343   50.3338 N.am    1  ZINC000944933040   -0.6000
      9 C9         -4.3582    2.7667   49.2046 C.3     1  ZINC000944933040    0.1100
     10 C10        -5.6836    3.3170   49.7447 C.3     1  ZINC000944933040   -0.1200
     11 C11        -6.1986    2.3911   50.8438 C.3     1  ZINC000944933040   -0.0900
     12 C12        -7.6252    2.7188   51.3057 C.3     1  ZINC000944933040    0.1200
     13 N13        -7.8512    1.2596   51.2997 N.am    1  ZINC000944933040   -0.6400
     14 C14        -8.7044    0.4339   51.9375 C.2     1  ZINC000944933040    0.5500
     15 O15        -8.6600   -0.7605   51.7319 O.2     1  ZINC000944933040   -0.5300
     16 C16        -9.7136    0.9947   52.9060 C.3     1  ZINC000944933040   -0.1300
     17 H17        -9.9100    2.0453   52.6916 H       1  ZINC000944933040    0.1100
     18 C18        -9.2312    0.8136   54.3679 C.3     1  ZINC000944933040   -0.1300
     19 C19       -10.3347   -0.0974   54.9848 C.3     1  ZINC000944933040    0.0900
     20 H20       -10.0370   -0.6568   55.8717 H       1  ZINC000944933040    0.1300
     21 O21       -10.7201   -0.9050   53.8244 O.3     1  ZINC000944933040   -0.3600
     22 C22       -11.0335    0.1675   52.8686 C.3     1  ZINC000944933040    0.1200
     23 H23       -11.3661   -0.1599   51.8836 H       1  ZINC000944933040    0.1400
     24 C24       -12.0683    1.0041   53.6794 C.3     1  ZINC000944933040   -0.2000
     25 H25       -12.3884    1.9629   53.2715 H       1  ZINC000944933040    0.1200
     26 C26       -12.9643    0.2476   54.6622 C.3     1  ZINC000944933040   -0.1300
     27 C27       -11.5782    0.8245   55.1626 C.3     1  ZINC000944933040   -0.2000
     28 H28       -11.5520    1.6343   55.8918 H       1  ZINC000944933040    0.1300
     29 C29        -6.7683    1.0675   50.3144 C.3     1  ZINC000944933040    0.1100
     30 C30        -5.2093    2.2136   51.9930 C.3     1  ZINC000944933040   -0.1100
     31 C31        -3.8849    1.6661   51.4353 C.3     1  ZINC000944933040    0.1100
     32 H32         0.8504    1.4961   53.4535 H       1  ZINC000944933040    0.1400
     33 H33         1.9788    3.5087   54.5077 H       1  ZINC000944933040    0.1100
     34 H34         0.7401    4.6197   53.7122 H       1  ZINC000944933040    0.1000
     35 H35        -1.1257    3.4217   54.9442 H       1  ZINC000944933040    0.1000
     36 H36         0.1130    2.3107   55.7397 H       1  ZINC000944933040    0.1100
     37 H37        -3.9141    3.4895   48.5202 H       1  ZINC000944933040    0.0900
     38 H38        -4.5385    1.8278   48.6813 H       1  ZINC000944933040    0.0800
     39 H39        -5.5242    4.3148   50.1538 H       1  ZINC000944933040    0.0800
     40 H40        -6.4140    3.3657   48.9371 H       1  ZINC000944933040    0.0900
     41 H41        -7.6739    3.1672   52.2979 H       1  ZINC000944933040    0.0800
     42 H42        -8.2145    3.2580   50.5639 H       1  ZINC000944933040    0.0900
     43 H43        -8.2610    0.3177   54.3958 H       1  ZINC000944933040    0.0800
     44 H44        -9.1905    1.7734   54.8828 H       1  ZINC000944933040    0.0900
     45 H45       -13.8617    0.7553   55.0161 H       1  ZINC000944933040    0.1000
     46 H46       -13.0575   -0.8302   54.5289 H       1  ZINC000944933040    0.1000
     47 H47        -7.1030    1.1160   49.2782 H       1  ZINC000944933040    0.0900
     48 H48        -6.1359    0.2036   50.5188 H       1  ZINC000944933040    0.0800
     49 H49        -5.0345    3.1755   52.4751 H       1  ZINC000944933040    0.0800
     50 H50        -5.6163    1.5097   52.7188 H       1  ZINC000944933040    0.0800
     51 H51        -4.0345    0.6502   51.0697 H       1  ZINC000944933040    0.0700
     52 H52        -3.1295    1.6665   52.2211 H       1  ZINC000944933040    0.1000
@<TRIPOS>BOND
     1     1     2    2
     2     2     3    1
     3     2     8   am
     4     3     4    3
     5     4     5    1
     6     5     7    1
     7     5     6    1
     8     5    32    1
     9     6     7    1
    10     6    33    1
    11     6    34    1
    12     7    35    1
    13     7    36    1
    14     8    31    1
    15     8     9    1
    16     9    10    1
    17     9    37    1
    18     9    38    1
    19    10    11    1
    20    10    39    1
    21    10    40    1
    22    11    29    1
    23    11    12    1
    24    11    30    1
    25    12    13    1
    26    12    41    1
    27    12    42    1
    28    13    14   am
    29    13    29    1
    30    14    15    2
    31    14    16    1
    32    16    17    1
    33    16    22    1
    34    16    18    1
    35    18    19    1
    36    18    43    1
    37    18    44    1
    38    19    20    1
    39    19    27    1
    40    19    21    1
    41    21    22    1
    42    22    23    1
    43    22    24    1
    44    24    25    1
    45    24    27    1
    46    24    26    1
    47    26    27    1
    48    26    45    1
    49    26    46    1
    50    27    28    1
    51    29    47    1
    52    29    48    1
    53    30    31    1
    54    30    49    1
    55    30    50    1
    56    31    51    1
    57    31    52    1
@<TRIPOS>SUBSTRUCTURE
     1 ZINC000944933040        1 TEMP              0 ****  ****    0 ROOT


##########                                Name:    ZINC000444542200
##########                DOCK_Rotatable_Bonds:                   8
##########                         Heavy_Atoms:                  28
##########                    Molecular_Weight:             404.337
##########                DOCK_Rotatable_Bonds:                   8
##########                       Formal_Charge:           0.0200001
##########                     HBond_Acceptors:                  10
##########                        HBond_Donors:                   1
##########                         Heavy_Atoms:                  28
##########                          Grid_Score:          -29.844429
##########                     Grid_vdw_energy:          -27.726746
##########                      Grid_es_energy:           -2.117683
##########           Internal_energy_repulsive:           20.398548

@<TRIPOS>MOLECULE
ZINC000444542200
 45 46 1 0 0
SMALL
USER_CHARGES


@<TRIPOS>ATOM
      1 C1        -10.0603    4.1995   49.0843 C.3     1  ZINC000444542200    0.0300
      2 O2        -10.0923    3.8975   50.4807 O.3     1  ZINC000444542200   -0.3100
      3 C3         -9.0299    3.2201   50.9899 C.ar    1  ZINC000444542200    0.1800
      4 C4         -9.0105    2.8682   52.3309 C.ar    1  ZINC000444542200   -0.1700
      5 C5         -7.9254    2.1760   52.8508 C.ar    1  ZINC000444542200    0.2300
      6 N6         -7.9055    1.8201   54.2040 N.am    1  ZINC000444542200   -0.5800
      7 C7         -7.0333    2.5373   55.1373 C.3     1  ZINC000444542200    0.0700
      8 C8         -8.6887    0.8174   54.6486 C.2     1  ZINC000444542200    0.7100
      9 O9         -9.4128    0.2223   53.8740 O.2     1  ZINC000444542200   -0.5500
     10 N10        -8.6695    0.4746   55.9519 N.am    1  ZINC000444542200   -0.7300
     11 C11        -9.5197   -0.6165   56.4349 C.3     1  ZINC000444542200    0.1700
     12 H12       -10.0071   -1.0994   55.5880 H       1  ZINC000444542200    0.1500
     13 C13        -8.6741   -1.6245   57.1696 C.ar    1  ZINC000444542200   -0.1300
     14 C14        -7.5857   -1.2044   57.9108 C.ar    1  ZINC000444542200   -0.0800
     15 C15        -6.8089   -2.1281   58.5854 C.ar    1  ZINC000444542200   -0.0900
     16 C16        -7.1191   -3.4733   58.5202 C.ar    1  ZINC000444542200   -0.1100
     17 C17        -8.2084   -3.8972   57.7788 C.ar    1  ZINC000444542200    0.0800
     18 F18        -8.5122   -5.2120   57.7146 F       1  ZINC000444542200   -0.1200
     19 C19        -8.9908   -2.9705   57.1069 C.ar    1  ZINC000444542200    0.1000
     20 F20       -10.0545   -3.3818   56.3827 F       1  ZINC000444542200   -0.1100
     21 C21       -10.5817   -0.0544   57.3821 C.3     1  ZINC000444542200    0.4400
     22 F22       -10.2831    1.2798   57.6785 F       1  ZINC000444542200   -0.1600
     23 F23       -11.8375   -0.1263   56.7698 F       1  ZINC000444542200   -0.1700
     24 F24       -10.5956   -0.8028   58.5640 F       1  ZINC000444542200   -0.1800
     25 C25        -6.8605    1.8367   52.0277 C.ar    1  ZINC000444542200   -0.1900
     26 C26        -6.8811    2.1893   50.6870 C.ar    1  ZINC000444542200    0.1800
     27 O27        -5.8386    1.8571   49.8811 O.3     1  ZINC000444542200   -0.3100
     28 C28        -4.7175    1.2221   50.4990 C.3     1  ZINC000444542200    0.0300
     29 C29        -7.9679    2.8762   50.1670 C.ar    1  ZINC000444542200   -0.2900
     30 H30        -9.1881    4.8157   48.8659 H       1  ZINC000444542200    0.0600
     31 H31       -10.0027    3.2728   48.5133 H       1  ZINC000444542200    0.0600
     32 H32       -10.9656    4.7404   48.8087 H       1  ZINC000444542200    0.1000
     33 H33        -9.8393    3.1328   52.9707 H       1  ZINC000444542200    0.1300
     34 H34        -7.5711    3.3876   55.5567 H       1  ZINC000444542200    0.0700
     35 H35        -6.7313    1.8660   55.9412 H       1  ZINC000444542200    0.0700
     36 H36        -6.1486    2.8918   54.6084 H       1  ZINC000444542200    0.0900
     37 H37        -8.0929    0.9501   56.5701 H       1  ZINC000444542200    0.4100
     38 H38        -7.3416   -0.1538   57.9627 H       1  ZINC000444542200    0.1400
     39 H39        -5.9587   -1.7980   59.1637 H       1  ZINC000444542200    0.1500
     40 H40        -6.5114   -4.1939   59.0472 H       1  ZINC000444542200    0.1500
     41 H41        -6.0157    1.2985   52.4318 H       1  ZINC000444542200    0.1400
     42 H42        -5.0383    0.2891   50.9625 H       1  ZINC000444542200    0.0600
     43 H43        -3.9584    1.0113   49.7457 H       1  ZINC000444542200    0.1000
     44 H44        -4.3006    1.8814   51.2604 H       1  ZINC000444542200    0.0600
     45 H45        -7.9835    3.1506   49.1225 H       1  ZINC000444542200    0.1400
@<TRIPOS>BOND
     1     1     2    1
     2     1    30    1
     3     1    31    1
     4     1    32    1
     5     2     3    1
     6     3    29   ar
     7     3     4   ar
     8     4     5   ar
     9     4    33    1
    10     5     6    1
    11     5    25   ar
    12     6     7    1
    13     6     8   am
    14     7    34    1
    15     7    35    1
    16     7    36    1
    17     8     9    2
    18     8    10   am
    19    10    11    1
    20    10    37    1
    21    11    12    1
    22    11    13    1
    23    11    21    1
    24    13    19   ar
    25    13    14   ar
    26    14    15   ar
    27    14    38    1
    28    15    16   ar
    29    15    39    1
    30    16    17   ar
    31    16    40    1
    32    17    18    1
    33    17    19   ar
    34    19    20    1
    35    21    22    1
    36    21    23    1
    37    21    24    1
    38    25    26   ar
    39    25    41    1
    40    26    27    1
    41    26    29   ar
    42    27    28    1
    43    28    42    1
    44    28    43    1
    45    28    44    1
    46    29    45    1
@<TRIPOS>SUBSTRUCTURE
     1 ZINC000444542200        1 TEMP              0 ****  ****    0 ROOT


##########                                Name:    ZINC000892389374
##########                DOCK_Rotatable_Bonds:                   6
##########                         Heavy_Atoms:                  25
##########                    Molecular_Weight:             371.383
##########                DOCK_Rotatable_Bonds:                   6
##########                       Formal_Charge:          -0.0199998
##########                     HBond_Acceptors:                   9
##########                        HBond_Donors:                   1
##########                         Heavy_Atoms:                  25
##########                          Grid_Score:          -29.841490
##########                     Grid_vdw_energy:          -28.659630
##########                      Grid_es_energy:           -1.181860
##########           Internal_energy_repulsive:            7.342427

@<TRIPOS>MOLECULE
ZINC000892389374
 41 43 1 0 0
SMALL
USER_CHARGES


@<TRIPOS>ATOM
      1 C1        -13.7706   -1.0594   55.2537 C.3     1  ZINC000892389374   -0.1000
      2 C2        -12.4462   -1.3608   55.9067 C.ar    1  ZINC000892389374   -0.1800
      3 C3        -12.3711   -2.3076   56.9097 C.ar    1  ZINC000892389374   -0.0400
      4 C4        -11.1586   -2.5871   57.5106 C.ar    1  ZINC000892389374   -0.2100
      5 C5        -10.0110   -1.9159   57.1082 C.ar    1  ZINC000892389374    0.2200
      6 N6         -8.7835   -2.1997   57.7176 N.am    1  ZINC000892389374   -0.5700
      7 C7         -7.9701   -1.2463   58.4876 C.3     1  ZINC000892389374    0.0600
      8 C8         -6.7453   -2.0748   58.9207 C.3     1  ZINC000892389374    0.0400
      9 O9         -6.9942   -3.3943   58.3553 O.3     1  ZINC000892389374   -0.3200
     10 C10        -8.1604   -3.3859   57.6996 C.2     1  ZINC000892389374    0.6400
     11 O11        -8.6092   -4.3622   57.1323 O.2     1  ZINC000892389374   -0.5000
     12 C12       -10.0827   -0.9643   56.1010 C.ar    1  ZINC000892389374   -0.2300
     13 C13       -11.3007   -0.6898   55.4953 C.ar    1  ZINC000892389374    0.2400
     14 N14       -11.3773    0.2675   54.4813 N.pl3   1  ZINC000892389374   -0.7400
     15 C15       -11.1886   -0.1292   53.0837 C.3     1  ZINC000892389374    0.2000
     16 C16        -9.9691    0.5588   52.5265 C.2     1  ZINC000892389374   -0.2400
     17 C17        -9.8750    1.8521   52.2030 C.2     1  ZINC000892389374    0.0600
     18 N18        -8.6980    2.2138   51.7336 N.2     1  ZINC000892389374   -0.4500
     19 C19        -7.7940    1.2976   51.6430 C.2     1  ZINC000892389374    0.0200
     20 C20        -6.3931    1.5158   51.1321 C.3     1  ZINC000892389374   -0.0900
     21 C21        -6.3991    2.6354   50.0895 C.3     1  ZINC000892389374    0.4600
     22 F22        -6.6359    3.8606   50.7221 F       1  ZINC000892389374   -0.1800
     23 F23        -5.1595    2.6767   49.4423 F       1  ZINC000892389374   -0.1800
     24 F24        -7.4074    2.3929   49.1505 F       1  ZINC000892389374   -0.1700
     25 S25        -8.4132   -0.1979   52.1933 S.3     1  ZINC000892389374    0.1900
     26 H26       -13.9119   -1.7190   54.3974 H       1  ZINC000892389374    0.0700
     27 H27       -14.5747   -1.2193   55.9720 H       1  ZINC000892389374    0.0700
     28 H28       -13.7830   -0.0221   54.9191 H       1  ZINC000892389374    0.0600
     29 H29       -13.2619   -2.8304   57.2250 H       1  ZINC000892389374    0.1300
     30 H30       -11.1032   -3.3280   58.2946 H       1  ZINC000892389374    0.1200
     31 H31        -7.6638   -0.4098   57.8595 H       1  ZINC000892389374    0.1000
     32 H32        -8.5196   -0.8909   59.3593 H       1  ZINC000892389374    0.1000
     33 H33        -5.8306   -1.6488   58.5084 H       1  ZINC000892389374    0.1100
     34 H34        -6.6862   -2.1298   60.0077 H       1  ZINC000892389374    0.1100
     35 H35        -9.1918   -0.4409   55.7866 H       1  ZINC000892389374    0.1600
     36 H36       -11.5555    1.1951   54.7023 H       1  ZINC000892389374    0.4000
     37 H37       -11.0538   -1.2094   53.0276 H       1  ZINC000892389374    0.0900
     38 H38       -12.0651    0.1582   52.5029 H       1  ZINC000892389374    0.0800
     39 H39       -10.6963    2.5441   52.3171 H       1  ZINC000892389374    0.1800
     40 H40        -5.7433    1.7951   51.9615 H       1  ZINC000892389374    0.1300
     41 H41        -6.0252    0.5966   50.6762 H       1  ZINC000892389374    0.1400
@<TRIPOS>BOND
     1     1     2    1
     2     1    26    1
     3     1    27    1
     4     1    28    1
     5     2    13   ar
     6     2     3   ar
     7     3     4   ar
     8     3    29    1
     9     4     5   ar
    10     4    30    1
    11     5     6    1
    12     5    12   ar
    13     6    10   am
    14     6     7    1
    15     7     8    1
    16     7    31    1
    17     7    32    1
    18     8     9    1
    19     8    33    1
    20     8    34    1
    21     9    10    1
    22    10    11    2
    23    12    13   ar
    24    12    35    1
    25    13    14    1
    26    14    15    1
    27    14    36    1
    28    15    16    1
    29    15    37    1
    30    15    38    1
    31    16    25    1
    32    16    17    2
    33    17    18    1
    34    17    39    1
    35    18    19    2
    36    19    20    1
    37    19    25    1
    38    20    21    1
    39    20    40    1
    40    20    41    1
    41    21    22    1
    42    21    23    1
    43    21    24    1
@<TRIPOS>SUBSTRUCTURE
     1 ZINC000892389374        1 TEMP              0 ****  ****    0 ROOT


##########                                Name:    ZINC001169875900
##########                DOCK_Rotatable_Bonds:                   9
##########                         Heavy_Atoms:                  24
##########                    Molecular_Weight:             329.399
##########                DOCK_Rotatable_Bonds:                   9
##########                       Formal_Charge:          -0.0500002
##########                     HBond_Acceptors:                   6
##########                        HBond_Donors:                   1
##########                         Heavy_Atoms:                  24
##########                          Grid_Score:          -29.835108
##########                     Grid_vdw_energy:          -29.388165
##########                      Grid_es_energy:           -0.446943
##########           Internal_energy_repulsive:            7.406585

@<TRIPOS>MOLECULE
ZINC001169875900
 47 48 1 0 0
SMALL
USER_CHARGES


@<TRIPOS>ATOM
      1 C1        -11.1678    0.1529   55.1889 C.3     1  ZINC001169875900   -0.1500
      2 C2        -10.4580   -0.5332   54.0200 C.3     1  ZINC001169875900   -0.1300
      3 C3         -9.9210    0.5268   53.0562 C.3     1  ZINC001169875900    0.0700
      4 O4         -8.4969    0.4310   52.9880 O.3     1  ZINC001169875900   -0.3100
      5 C5         -7.8453    1.4077   52.3061 C.ar    1  ZINC001169875900    0.2700
      6 N6         -7.8629    1.4045   50.9843 N.ar    1  ZINC001169875900   -0.5000
      7 C7         -7.2389    2.3297   50.2797 C.ar    1  ZINC001169875900    0.0600
      8 C8         -6.5420    3.3499   50.9093 C.ar    1  ZINC001169875900    0.1400
      9 N9         -5.8820    4.3277   50.1558 N.pl3   1  ZINC001169875900   -0.7400
     10 C10        -4.4554    4.5805   50.3727 C.3     1  ZINC001169875900    0.1800
     11 C11        -3.6651    3.3533   49.9975 C.ar    1  ZINC001169875900    0.1000
     12 C12        -3.1034    2.5711   50.9940 C.ar    1  ZINC001169875900   -0.1200
     13 C13        -2.3771    1.4432   50.6444 C.ar    1  ZINC001169875900   -0.0800
     14 C14        -2.2384    1.1368   49.3000 C.ar    1  ZINC001169875900   -0.1000
     15 C15        -2.8305    1.9686   48.3517 C.ar    1  ZINC001169875900    0.0900
     16 C16        -2.6915    1.6551   46.9112 C.2     1  ZINC001169875900    0.5200
     17 O17        -2.9842    2.4881   46.0776 O.2     1  ZINC001169875900   -0.5000
     18 O18        -2.2404    0.4462   46.5256 O.3     1  ZINC001169875900   -0.3300
     19 C19        -1.6774    0.3476   45.1909 C.3     1  ZINC001169875900    0.0600
     20 C20        -0.2847    0.9810   45.1769 C.3     1  ZINC001169875900   -0.1500
     21 N21        -3.5224    3.0367   48.7292 N.ar    1  ZINC001169875900   -0.4200
     22 C22        -6.5067    3.3889   52.3021 C.ar    1  ZINC001169875900   -0.1200
     23 C23        -7.1729    2.4015   53.0056 C.ar    1  ZINC001169875900   -0.1000
     24 C24        -7.1641    2.4005   54.5127 C.3     1  ZINC001169875900   -0.1000
     25 H25       -11.9957    0.7522   54.8099 H       1  ZINC001169875900    0.0600
     26 H26       -11.5503   -0.6023   55.8754 H       1  ZINC001169875900    0.0600
     27 H27       -10.4631    0.7976   55.7139 H       1  ZINC001169875900    0.0600
     28 H28       -11.1628   -1.1780   53.4949 H       1  ZINC001169875900    0.0700
     29 H29        -9.6301   -1.1325   54.3989 H       1  ZINC001169875900    0.0700
     30 H30       -10.2018    1.5178   53.4130 H       1  ZINC001169875900    0.0600
     31 H31       -10.3440    0.3642   52.0649 H       1  ZINC001169875900    0.0600
     32 H32        -7.2711    2.2915   49.2009 H       1  ZINC001169875900    0.1500
     33 H33        -6.3692    4.8378   49.4900 H       1  ZINC001169875900    0.4000
     34 H34        -4.1371    5.4204   49.7553 H       1  ZINC001169875900    0.0800
     35 H35        -4.2837    4.8160   51.4231 H       1  ZINC001169875900    0.0800
     36 H36        -3.2299    2.8378   52.0329 H       1  ZINC001169875900    0.1500
     37 H37        -1.9300    0.8174   51.4026 H       1  ZINC001169875900    0.1500
     38 H38        -1.6790    0.2659   48.9917 H       1  ZINC001169875900    0.1500
     39 H39        -1.6023   -0.7014   44.9048 H       1  ZINC001169875900    0.0700
     40 H40        -2.3219    0.8714   44.4851 H       1  ZINC001169875900    0.0700
     41 H41        -0.3598    2.0301   45.4629 H       1  ZINC001169875900    0.0700
     42 H42         0.3598    0.4571   45.8827 H       1  ZINC001169875900    0.0700
     43 H43         0.1380    0.9070   44.1748 H       1  ZINC001169875900    0.0800
     44 H44        -5.9716    4.1712   52.8199 H       1  ZINC001169875900    0.1400
     45 H45        -8.0120    2.9777   54.8813 H       1  ZINC001169875900    0.0700
     46 H46        -6.2368    2.8479   54.8708 H       1  ZINC001169875900    0.0700
     47 H47        -7.2369    1.3754   54.8758 H       1  ZINC001169875900    0.0700
@<TRIPOS>BOND
     1     1     2    1
     2     1    25    1
     3     1    26    1
     4     1    27    1
     5     2     3    1
     6     2    28    1
     7     2    29    1
     8     3     4    1
     9     3    30    1
    10     3    31    1
    11     4     5    1
    12     5    23   ar
    13     5     6   ar
    14     6     7   ar
    15     7     8   ar
    16     7    32    1
    17     8     9    1
    18     8    22   ar
    19     9    10    1
    20     9    33    1
    21    10    11    1
    22    10    34    1
    23    10    35    1
    24    11    21   ar
    25    11    12   ar
    26    12    13   ar
    27    12    36    1
    28    13    14   ar
    29    13    37    1
    30    14    15   ar
    31    14    38    1
    32    15    16    1
    33    15    21   ar
    34    16    17    2
    35    16    18    1
    36    18    19    1
    37    19    20    1
    38    19    39    1
    39    19    40    1
    40    20    41    1
    41    20    42    1
    42    20    43    1
    43    22    23   ar
    44    22    44    1
    45    23    24    1
    46    24    45    1
    47    24    46    1
    48    24    47    1
@<TRIPOS>SUBSTRUCTURE
     1 ZINC001169875900        1 TEMP              0 ****  ****    0 ROOT


##########                                Name:    ZINC000355549087
##########                DOCK_Rotatable_Bonds:                   9
##########                         Heavy_Atoms:                  23
##########                    Molecular_Weight:             336.415
##########                DOCK_Rotatable_Bonds:                   9
##########                       Formal_Charge:        -9.53674e-07
##########                     HBond_Acceptors:                   8
##########                        HBond_Donors:                   4
##########                         Heavy_Atoms:                  23
##########                          Grid_Score:          -29.826220
##########                     Grid_vdw_energy:          -28.967924
##########                      Grid_es_energy:           -0.858295
##########           Internal_energy_repulsive:            9.867537

@<TRIPOS>MOLECULE
ZINC000355549087
 43 44 1 0 0
SMALL
USER_CHARGES


@<TRIPOS>ATOM
      1 C1         -1.0287   -0.9347   48.0894 C.3     1  <0>        -0.1500
      2 C2         -0.9821    0.1386   47.0000 C.3     1  <0>        -0.1200
      3 C3         -2.0800    1.1730   47.2561 C.3     1  <0>        -0.1000
      4 H4         -3.0024    0.6627   47.5335 H       1  <0>         0.0800
      5 C5         -2.3133    1.9942   45.9865 C.3     1  <0>        -0.1500
      6 C6         -1.6496    2.1025   48.3928 C.3     1  <0>         0.0900
      7 H7         -0.8847    1.6111   48.9940 H       1  <0>         0.1000
      8 O8         -1.1212    3.3119   47.8450 O.3     1  <0>        -0.3500
      9 C9          0.2954    3.4411   47.9810 C.3     1  <0>         0.0200
     10 C10        -2.8409    2.4217   49.2588 C.2     1  <0>         0.5100
     11 O11        -3.2606    3.5581   49.3178 O.2     1  <0>        -0.4800
     12 N12        -3.4400    1.4445   49.9678 N.am    1  <0>        -0.6200
     13 C13        -4.5395    1.7387   50.7650 C.2     1  <0>         0.2400
     14 N14        -4.5234    1.7830   52.0588 N.2     1  <0>        -0.5000
     15 C15        -5.6660    2.0807   52.6636 C.2     1  <0>         0.1700
     16 C16        -5.7985    2.1676   54.1404 C.2     1  <0>        -0.1100
     17 C17        -4.9995    2.8873   54.9820 C.2     1  <0>         0.0600
     18 N18        -5.4421    2.7110   56.2510 N.pl3   1  <0>        -0.5400
     19 C19        -6.5333    1.8724   56.2285 C.2     1  <0>        -0.0600
     20 C20        -7.3059    1.4308   57.3949 C.2     1  <0>         0.5900
     21 N21        -6.7403    0.6184   58.3096 N.am    1  <0>        -0.8600
     22 O22        -8.4575    1.7980   57.5365 O.2     1  <0>        -0.5300
     23 C23        -6.7742    1.5278   54.9277 C.2     1  <0>        -0.0600
     24 C24        -6.6941    2.2972   51.8235 C.2     1  <0>        -0.3200
     25 S25        -6.1027    2.1003   50.1760 S.3     1  <0>         0.2500
     26 H26        -0.2466   -1.6718   47.9070 H       1  <0>         0.0600
     27 H27        -0.8711   -0.4712   49.0631 H       1  <0>         0.0600
     28 H28        -2.0016   -1.4261   48.0740 H       1  <0>         0.0600
     29 H29        -0.0093    0.6299   47.0154 H       1  <0>         0.0600
     30 H30        -1.1397   -0.3250   46.0262 H       1  <0>         0.0700
     31 H31        -1.3908    2.5044   45.7091 H       1  <0>         0.0700
     32 H32        -2.6198    1.3320   45.1767 H       1  <0>         0.0600
     33 H33        -3.0954    2.7311   46.1689 H       1  <0>         0.0500
     34 H34         0.6056    4.4260   47.6315 H       1  <0>         0.0900
     35 H35         0.5721    3.3237   49.0288 H       1  <0>         0.0500
     36 H36         0.7892    2.6725   47.3864 H       1  <0>         0.0500
     37 H37        -3.1036    0.5359   49.9215 H       1  <0>         0.4200
     38 H38        -4.1569    3.4947   54.6862 H       1  <0>         0.1800
     39 H39        -5.0532    3.1102   57.0449 H       1  <0>         0.4200
     40 H40        -7.2508    0.3274   59.0814 H       1  <0>         0.4000
     41 H41        -5.8228    0.3248   58.1961 H       1  <0>         0.4100
     42 H42        -7.5620    0.8806   54.5715 H       1  <0>         0.1500
     43 H43        -7.7043    2.5509   52.1091 H       1  <0>         0.1800
@<TRIPOS>BOND
     1     1     2    1
     2     1    26    1
     3     1    27    1
     4     1    28    1
     5     2     3    1
     6     2    29    1
     7     2    30    1
     8     3     4    1
     9     3     5    1
    10     3     6    1
    11     5    31    1
    12     5    32    1
    13     5    33    1
    14     6     7    1
    15     6     8    1
    16     6    10    1
    17     8     9    1
    18     9    34    1
    19     9    35    1
    20     9    36    1
    21    10    11    2
    22    10    12   am
    23    12    13    1
    24    12    37    1
    25    13    25    1
    26    13    14    2
    27    14    15    1
    28    15    16    1
    29    15    24    2
    30    16    23    1
    31    16    17    2
    32    17    18    1
    33    17    38    1
    34    18    19    1
    35    18    39    1
    36    19    20    1
    37    19    23    2
    38    20    21   am
    39    20    22    2
    40    21    40    1
    41    21    41    1
    42    23    42    1
    43    24    25    1
    44    24    43    1
@<TRIPOS>SUBSTRUCTURE
     1 <0>         1 TEMP              0 ****  ****    0 ROOT


##########                                Name:    ZINC001077846158
##########                DOCK_Rotatable_Bonds:                   7
##########                         Heavy_Atoms:                  24
##########                    Molecular_Weight:             350.442
##########                DOCK_Rotatable_Bonds:                   7
##########                       Formal_Charge:          -0.0600002
##########                     HBond_Acceptors:                   8
##########                        HBond_Donors:                   2
##########                         Heavy_Atoms:                  24
##########                          Grid_Score:          -29.817448
##########                     Grid_vdw_energy:          -29.635387
##########                      Grid_es_energy:           -0.182061
##########           Internal_energy_repulsive:            6.702148

@<TRIPOS>MOLECULE
ZINC001077846158
 46 48 1 0 0
SMALL
USER_CHARGES


@<TRIPOS>ATOM
      1 C1         -1.8195    0.8528   47.6982 C.3     1  ZINC001077846158   -0.0700
      2 C2         -1.7755    1.3404   49.1235 C.2     1  ZINC001077846158    0.0100
      3 C3         -2.7181    2.0719   49.7405 C.2     1  ZINC001077846158   -0.0500
      4 C4         -4.0124    2.5556   49.1388 C.3     1  ZINC001077846158    0.1300
      5 N5         -5.0041    2.7531   50.2044 N.3     1  ZINC001077846158   -0.5100
      6 C6         -6.1832    3.5036   49.7017 C.3     1  ZINC001077846158    0.0000
      7 C7         -7.2873    3.1617   50.7336 C.3     1  ZINC001077846158    0.1000
      8 H8         -7.1874    3.7810   51.6249 H       1  ZINC001077846158    0.0800
      9 O9         -8.5849    3.3161   50.1555 O.3     1  ZINC001077846158   -0.5600
     10 C10        -7.0044    1.6781   51.0638 C.3     1  ZINC001077846158    0.1400
     11 H11        -7.6470    1.0289   50.4692 H       1  ZINC001077846158    0.1100
     12 N12        -7.2110    1.4268   52.4923 N.am    1  ZINC001077846158   -0.7000
     13 C13        -8.1819    0.5829   52.8945 C.2     1  ZINC001077846158    0.6000
     14 O14        -8.8873    0.0310   52.0716 O.2     1  ZINC001077846158   -0.5300
     15 C15        -8.3884    0.3289   54.3302 C.2     1  ZINC001077846158    0.0100
     16 C16        -7.7542    1.0223   55.3024 C.2     1  ZINC001077846158   -0.2300
     17 S17        -8.2627    0.4307   56.8234 S.3     1  ZINC001077846158    0.2300
     18 C18        -9.2922   -0.7075   56.0743 C.2     1  ZINC001077846158    0.0300
     19 C19       -10.1640   -1.6915   56.8110 C.3     1  ZINC001077846158   -0.0200
     20 C20        -9.4540   -3.0446   56.8871 C.3     1  ZINC001077846158   -0.1500
     21 C21       -10.4319   -1.1757   58.2263 C.3     1  ZINC001077846158   -0.1500
     22 N22        -9.2241   -0.6042   54.7938 N.2     1  ZINC001077846158   -0.4500
     23 C23        -5.5274    1.4571   50.6883 C.3     1  ZINC001077846158    0.0300
     24 O24        -2.2890    2.2915   50.9988 O.3     1  ZINC001077846158   -0.2100
     25 C25        -1.0971    1.6951   51.1340 C.2     1  ZINC001077846158    0.1800
     26 N26        -0.7880    1.1169   50.0085 N.2     1  ZINC001077846158   -0.4900
     27 H27        -2.3010   -0.1245   47.6633 H       1  ZINC001077846158    0.0800
     28 H28        -2.3855    1.5584   47.0900 H       1  ZINC001077846158    0.0700
     29 H29        -0.8041    0.7716   47.3104 H       1  ZINC001077846158    0.0700
     30 H30        -3.8421    3.4997   48.6215 H       1  ZINC001077846158    0.0600
     31 H31        -4.3829    1.8147   48.4304 H       1  ZINC001077846158    0.1100
     32 H32        -5.9825    4.5749   49.6938 H       1  ZINC001077846158    0.0900
     33 H33        -6.4649    3.1565   48.7077 H       1  ZINC001077846158    0.0600
     34 H34        -8.6539    2.9851   49.2496 H       1  ZINC001077846158    0.3900
     35 H35        -6.6491    1.8678   53.1486 H       1  ZINC001077846158    0.4100
     36 H36        -7.0429    1.8193   55.1439 H       1  ZINC001077846158    0.1900
     37 H37       -11.1097   -1.8067   56.2812 H       1  ZINC001077846158    0.1000
     38 H38        -9.2632   -3.4121   55.8788 H       1  ZINC001077846158    0.0600
     39 H39        -8.5084   -2.9295   57.4169 H       1  ZINC001077846158    0.0600
     40 H40       -10.0847   -3.7564   57.4199 H       1  ZINC001077846158    0.0700
     41 H41       -10.9377   -0.2118   58.1721 H       1  ZINC001077846158    0.0600
     42 H42       -11.0625   -1.8876   58.7591 H       1  ZINC001077846158    0.0700
     43 H43        -9.4863   -1.0606   58.7561 H       1  ZINC001077846158    0.0600
     44 H44        -5.4527    0.7087   49.8994 H       1  ZINC001077846158    0.0600
     45 H45        -4.9657    1.1339   51.5648 H       1  ZINC001077846158    0.0900
     46 H46        -0.4938    1.6907   52.0298 H       1  ZINC001077846158    0.2500
@<TRIPOS>BOND
     1     1     2    1
     2     1    27    1
     3     1    28    1
     4     1    29    1
     5     2    26    1
     6     2     3    2
     7     3     4    1
     8     3    24    1
     9     4     5    1
    10     4    30    1
    11     4    31    1
    12     5    23    1
    13     5     6    1
    14     6     7    1
    15     6    32    1
    16     6    33    1
    17     7     8    1
    18     7     9    1
    19     7    10    1
    20     9    34    1
    21    10    11    1
    22    10    12    1
    23    10    23    1
    24    12    13   am
    25    12    35    1
    26    13    14    2
    27    13    15    1
    28    15    22    1
    29    15    16    2
    30    16    17    1
    31    16    36    1
    32    17    18    1
    33    18    19    1
    34    18    22    2
    35    19    20    1
    36    19    21    1
    37    19    37    1
    38    20    38    1
    39    20    39    1
    40    20    40    1
    41    21    41    1
    42    21    42    1
    43    21    43    1
    44    23    44    1
    45    23    45    1
    46    24    25    1
    47    25    26    2
    48    25    46    1
@<TRIPOS>SUBSTRUCTURE
     1 ZINC001077846158        1 TEMP              0 ****  ****    0 ROOT


##########                                Name:    ZINC000541252362
##########                DOCK_Rotatable_Bonds:                   5
##########                         Heavy_Atoms:                  27
##########                    Molecular_Weight:             401.254
##########                DOCK_Rotatable_Bonds:                   5
##########                       Formal_Charge:          -0.0199999
##########                     HBond_Acceptors:                   9
##########                        HBond_Donors:                   1
##########                         Heavy_Atoms:                  27
##########                          Grid_Score:          -29.803185
##########                     Grid_vdw_energy:          -27.749062
##########                      Grid_es_energy:           -2.054122
##########           Internal_energy_repulsive:            3.022078

@<TRIPOS>MOLECULE
ZINC000541252362
 41 44 1 0 0
SMALL
USER_CHARGES


@<TRIPOS>ATOM
      1 C1        -14.0229   -3.8361   57.8757 C.3     1  ZINC000541252362    0.1000
      2 N2        -13.0688   -2.7244   57.8577 N.pl3   1  ZINC000541252362   -0.3800
      3 C3        -12.8973   -1.8270   56.8703 C.2     1  ZINC000541252362    0.2600
      4 N4        -11.9554   -0.9959   57.2305 N.2     1  ZINC000541252362   -0.5300
      5 C5        -11.4976   -1.3281   58.4449 C.2     1  ZINC000541252362    0.2700
      6 C6        -10.4269   -0.6195   59.1893 C.ar    1  ZINC000541252362    0.0000
      7 C7        -10.1334   -0.9800   60.5030 C.ar    1  ZINC000541252362   -0.1000
      8 C8         -9.1367   -0.3201   61.1943 C.ar    1  ZINC000541252362   -0.1000
      9 C9         -8.4277    0.6990   60.5875 C.ar    1  ZINC000541252362   -0.1300
     10 C10        -8.7137    1.0650   59.2777 C.ar    1  ZINC000541252362    0.1400
     11 N11        -7.9936    2.0975   58.6663 N.am    1  ZINC000541252362   -0.6800
     12 C12        -6.7925    1.8440   58.1103 C.2     1  ZINC000541252362    0.5100
     13 O13        -6.3354    0.7209   58.1397 O.2     1  ZINC000541252362   -0.4900
     14 C14        -6.0171    2.9559   57.4519 C.3     1  ZINC000541252362   -0.0600
     15 C15        -5.8050    2.6272   55.9966 C.2     1  ZINC000541252362    0.0700
     16 C16        -4.6372    2.7368   55.3256 C.2     1  ZINC000541252362   -0.0700
     17 N17        -4.8730    2.3424   54.0370 N.pl3   1  ZINC000541252362   -0.3500
     18 C18        -4.0684    2.2516   52.9369 C.2     1  ZINC000541252362    0.0700
     19 C19        -4.5638    1.8230   51.7562 C.2     1  ZINC000541252362   -0.0500
     20 Cl20       -3.5236    1.7152   50.3705 Cl      1  ZINC000541252362   -0.0200
     21 C21        -5.9178    1.4631   51.6443 C.2     1  ZINC000541252362   -0.0900
     22 C22        -6.7300    1.5486   52.7331 C.2     1  ZINC000541252362    0.0200
     23 Cl23       -8.4050    1.1079   52.6142 Cl      1  ZINC000541252362   -0.0100
     24 C24        -6.1972    1.9987   53.9588 C.2     1  ZINC000541252362    0.2200
     25 N25        -6.7381    2.1736   55.1566 N.2     1  ZINC000541252362   -0.4300
     26 C26        -9.7092    0.4034   58.5750 C.ar    1  ZINC000541252362   -0.0800
     27 N27       -12.1580   -2.3825   58.8705 N.2     1  ZINC000541252362   -0.3100
     28 H28       -14.9649   -3.4994   58.3084 H       1  ZINC000541252362    0.0800
     29 H29       -14.1946   -4.1839   56.8571 H       1  ZINC000541252362    0.0900
     30 H30       -13.6187   -4.6519   58.4750 H       1  ZINC000541252362    0.0900
     31 H31       -13.4441   -1.7986   55.9394 H       1  ZINC000541252362    0.2200
     32 H32       -10.6860   -1.7755   60.9807 H       1  ZINC000541252362    0.1300
     33 H33        -8.9108   -0.6010   62.2124 H       1  ZINC000541252362    0.1300
     34 H34        -7.6496    1.2125   61.1325 H       1  ZINC000541252362    0.1300
     35 H35        -8.3591    2.9957   58.6429 H       1  ZINC000541252362    0.4100
     36 H36        -6.5760    3.8879   57.5362 H       1  ZINC000541252362    0.1200
     37 H37        -5.0508    3.0661   57.9441 H       1  ZINC000541252362    0.1200
     38 H38        -3.6943    3.0736   55.7306 H       1  ZINC000541252362    0.1900
     39 H39        -3.0265    2.5257   53.0121 H       1  ZINC000541252362    0.1800
     40 H40        -6.3120    1.1208   50.6988 H       1  ZINC000541252362    0.1600
     41 H41        -9.9328    0.6860   57.5570 H       1  ZINC000541252362    0.1500
@<TRIPOS>BOND
     1     1     2    1
     2     1    28    1
     3     1    29    1
     4     1    30    1
     5     2    27    1
     6     2     3    1
     7     3     4    2
     8     3    31    1
     9     4     5    1
    10     5     6    1
    11     5    27    2
    12     6    26   ar
    13     6     7   ar
    14     7     8   ar
    15     7    32    1
    16     8     9   ar
    17     8    33    1
    18     9    10   ar
    19     9    34    1
    20    10    11    1
    21    10    26   ar
    22    11    12   am
    23    11    35    1
    24    12    13    2
    25    12    14    1
    26    14    15    1
    27    14    36    1
    28    14    37    1
    29    15    25    1
    30    15    16    2
    31    16    17    1
    32    16    38    1
    33    17    24    1
    34    17    18    1
    35    18    19    2
    36    18    39    1
    37    19    20    1
    38    19    21    1
    39    21    22    2
    40    21    40    1
    41    22    23    1
    42    22    24    1
    43    24    25    2
    44    26    41    1
@<TRIPOS>SUBSTRUCTURE
     1 ZINC000541252362        1 TEMP              0 ****  ****    0 ROOT


##########                                Name:    ZINC000298969660
##########                DOCK_Rotatable_Bonds:                  10
##########                         Heavy_Atoms:                  29
##########                    Molecular_Weight:             397.474
##########                DOCK_Rotatable_Bonds:                  10
##########                       Formal_Charge:          -0.0100008
##########                     HBond_Acceptors:                   7
##########                        HBond_Donors:                   2
##########                         Heavy_Atoms:                  29
##########                          Grid_Score:          -29.786839
##########                     Grid_vdw_energy:          -29.324099
##########                      Grid_es_energy:           -0.462739
##########           Internal_energy_repulsive:           13.506621

@<TRIPOS>MOLECULE
ZINC000298969660
 56 58 1 0 0
SMALL
USER_CHARGES


@<TRIPOS>ATOM
      1 C1         -4.3970    4.6685   50.1243 C.3     1  ZINC000298969660    0.0800
      2 N2         -4.3987    3.2302   50.4025 N.am    1  ZINC000298969660   -0.6300
      3 C3         -4.1054    2.2764   49.3300 C.3     1  ZINC000298969660    0.1400
      4 C4         -2.6132    1.9388   49.3416 C.3     1  ZINC000298969660    0.0700
      5 H5         -2.2629    1.8751   50.3718 H       1  ZINC000298969660    0.0500
      6 C6         -1.8363    3.0332   48.6050 C.3     1  ZINC000298969660   -0.1500
      7 C7         -0.3516    2.6582   48.5686 C.3     1  ZINC000298969660   -0.1200
      8 C8         -0.1987    1.2877   47.9018 C.3     1  ZINC000298969660   -0.1600
      9 C9         -1.0388    0.2607   48.6655 C.3     1  ZINC000298969660    0.0600
     10 O10        -2.4031    0.6852   48.6884 O.3     1  ZINC000298969660   -0.3600
     11 C11        -4.6699    2.7845   51.6452 C.2     1  ZINC000298969660    0.7100
     12 O12        -4.6698    1.5909   51.8764 O.2     1  ZINC000298969660   -0.5400
     13 N13        -4.9413    3.6620   52.6316 N.am    1  ZINC000298969660   -0.6900
     14 C14        -5.2230    3.1993   53.9218 C.ar    1  ZINC000298969660    0.2000
     15 C15        -4.4238    3.5869   54.9894 C.ar    1  ZINC000298969660   -0.1800
     16 C16        -4.7015    3.1296   56.2633 C.ar    1  ZINC000298969660   -0.0600
     17 C17        -5.7745    2.2862   56.4786 C.ar    1  ZINC000298969660   -0.2300
     18 C18        -6.5767    1.8955   55.4153 C.ar    1  ZINC000298969660    0.1500
     19 O19        -7.6315    1.0656   55.6285 O.3     1  ZINC000298969660   -0.2900
     20 C20        -8.6630    1.5374   56.4977 C.3     1  ZINC000298969660    0.0400
     21 C21        -9.5976    0.4029   56.8304 C.2     1  ZINC000298969660    0.5100
     22 O22       -10.5668    0.6015   57.5320 O.2     1  ZINC000298969660   -0.4900
     23 N23        -9.3563   -0.8322   56.3482 N.am    1  ZINC000298969660   -0.6700
     24 C24       -10.2241   -1.8857   56.6570 C.ar    1  ZINC000298969660    0.1400
     25 C25       -11.5698   -1.7987   56.3254 C.ar    1  ZINC000298969660   -0.1400
     26 C26       -12.4236   -2.8401   56.6316 C.ar    1  ZINC000298969660   -0.1000
     27 C27       -11.9401   -3.9683   57.2683 C.ar    1  ZINC000298969660   -0.1300
     28 C28       -10.6006   -4.0578   57.6004 C.ar    1  ZINC000298969660   -0.1000
     29 C29        -9.7403   -3.0226   57.2909 C.ar    1  ZINC000298969660   -0.1200
     30 C30        -6.3046    2.3567   54.1371 C.ar    1  ZINC000298969660   -0.1500
     31 H31        -5.3964    4.9812   49.8212 H       1  ZINC000298969660    0.0600
     32 H32        -4.1031    5.2120   51.0223 H       1  ZINC000298969660    0.0700
     33 H33        -3.6906    4.8827   49.3224 H       1  ZINC000298969660    0.0800
     34 H34        -4.6851    1.3663   49.4846 H       1  ZINC000298969660    0.1000
     35 H35        -4.3707    2.7172   48.3691 H       1  ZINC000298969660    0.0900
     36 H36        -2.2138    3.1253   47.5866 H       1  ZINC000298969660    0.0800
     37 H37        -1.9596    3.9819   49.1274 H       1  ZINC000298969660    0.0700
     38 H38         0.1993    3.4052   47.9971 H       1  ZINC000298969660    0.0700
     39 H39         0.0386    2.6145   49.5855 H       1  ZINC000298969660    0.0600
     40 H40        -0.5431    1.3445   46.8692 H       1  ZINC000298969660    0.0700
     41 H41         0.8492    0.9880   47.9213 H       1  ZINC000298969660    0.0700
     42 H42        -0.9677   -0.7077   48.1703 H       1  ZINC000298969660    0.0900
     43 H43        -0.6677    0.1749   49.6869 H       1  ZINC000298969660    0.0400
     44 H44        -4.9415    4.6143   52.4470 H       1  ZINC000298969660    0.4100
     45 H45        -3.5844    4.2461   54.8237 H       1  ZINC000298969660    0.1300
     46 H46        -4.0785    3.4316   57.0921 H       1  ZINC000298969660    0.1300
     47 H47        -5.9892    1.9303   57.4754 H       1  ZINC000298969660    0.1300
     48 H48        -8.2174    1.9220   57.4151 H       1  ZINC000298969660    0.1000
     49 H49        -9.2194    2.3333   56.0026 H       1  ZINC000298969660    0.1000
     50 H50        -8.5813   -0.9910   55.7871 H       1  ZINC000298969660    0.4100
     51 H51       -11.9482   -0.9175   55.8287 H       1  ZINC000298969660    0.1300
     52 H52       -13.4703   -2.7731   56.3739 H       1  ZINC000298969660    0.1300
     53 H53       -12.6098   -4.7811   57.5071 H       1  ZINC000298969660    0.1200
     54 H54       -10.2261   -4.9400   58.0982 H       1  ZINC000298969660    0.1300
     55 H55        -8.6943   -3.0931   57.5505 H       1  ZINC000298969660    0.1300
     56 H56        -6.9277    2.0537   53.3086 H       1  ZINC000298969660    0.1500
@<TRIPOS>BOND
     1     1     2    1
     2     1    31    1
     3     1    32    1
     4     1    33    1
     5     2     3    1
     6     2    11   am
     7     3     4    1
     8     3    34    1
     9     3    35    1
    10     4     5    1
    11     4    10    1
    12     4     6    1
    13     6     7    1
    14     6    36    1
    15     6    37    1
    16     7     8    1
    17     7    38    1
    18     7    39    1
    19     8     9    1
    20     8    40    1
    21     8    41    1
    22     9    10    1
    23     9    42    1
    24     9    43    1
    25    11    12    2
    26    11    13   am
    27    13    14    1
    28    13    44    1
    29    14    30   ar
    30    14    15   ar
    31    15    16   ar
    32    15    45    1
    33    16    17   ar
    34    16    46    1
    35    17    18   ar
    36    17    47    1
    37    18    19    1
    38    18    30   ar
    39    19    20    1
    40    20    21    1
    41    20    48    1
    42    20    49    1
    43    21    22    2
    44    21    23   am
    45    23    24    1
    46    23    50    1
    47    24    29   ar
    48    24    25   ar
    49    25    26   ar
    50    25    51    1
    51    26    27   ar
    52    26    52    1
    53    27    28   ar
    54    27    53    1
    55    28    29   ar
    56    28    54    1
    57    29    55    1
    58    30    56    1
@<TRIPOS>SUBSTRUCTURE
     1 ZINC000298969660        1 TEMP              0 ****  ****    0 ROOT


##########                                Name:    ZINC000864730443
##########                DOCK_Rotatable_Bonds:                  10
##########                         Heavy_Atoms:                  25
##########                    Molecular_Weight:             356.462
##########                DOCK_Rotatable_Bonds:                  10
##########                       Formal_Charge:           0.0299988
##########                     HBond_Acceptors:                   7
##########                        HBond_Donors:                   2
##########                         Heavy_Atoms:                  25
##########                          Grid_Score:          -29.786350
##########                     Grid_vdw_energy:          -30.835356
##########                      Grid_es_energy:            1.049005
##########           Internal_energy_repulsive:           19.435177

@<TRIPOS>MOLECULE
ZINC000864730443
 57 58 1 0 0
SMALL
USER_CHARGES


@<TRIPOS>ATOM
      1 C1         -0.2611    2.3787   46.9137 C.3     1  ZINC000864730443   -0.1800
      2 C2         -1.3095    1.6055   46.1113 C.3     1  ZINC000864730443    0.1400
      3 C3         -2.4892    2.5261   45.7930 C.3     1  ZINC000864730443   -0.1800
      4 C4         -0.6863    1.1056   44.8064 C.3     1  ZINC000864730443   -0.1400
      5 O5         -1.7761    0.4724   46.8901 O.3     1  ZINC000864730443   -0.3600
      6 C6         -1.6839    0.5717   48.2296 C.2     1  ZINC000864730443    0.6500
      7 O7         -0.7678    0.0312   48.8172 O.2     1  ZINC000864730443   -0.5700
      8 N8         -2.6075    1.2706   48.9187 N.am    1  ZINC000864730443   -0.7100
      9 C9         -2.5061    1.3802   50.3761 C.3     1  ZINC000864730443    0.1500
     10 C10        -3.2187    2.6512   50.8428 C.3     1  ZINC000864730443   -0.1300
     11 C11        -4.5841    2.7245   50.2092 C.2     1  ZINC000864730443    0.5300
     12 O12        -4.7749    3.4590   49.2631 O.2     1  ZINC000864730443   -0.5300
     13 N13        -5.5931    1.9740   50.6939 N.am    1  ZINC000864730443   -0.7200
     14 C14        -6.9205    2.0453   50.0780 C.3     1  ZINC000864730443    0.1200
     15 C15        -7.9057    2.6800   51.0615 C.3     1  ZINC000864730443   -0.1300
     16 C16        -8.2876    1.6566   52.1328 C.3     1  ZINC000864730443    0.0800
     17 H17        -7.4012    1.3314   52.6775 H       1  ZINC000864730443    0.0800
     18 C18        -9.3268    2.2625   53.1094 C.3     1  ZINC000864730443   -0.1500
     19 C19       -10.0207    0.9769   53.6363 C.3     1  ZINC000864730443   -0.1600
     20 C20        -9.9861    0.0550   52.3983 C.3     1  ZINC000864730443    0.0500
     21 O21        -8.9457    0.5293   51.5333 O.3     1  ZINC000864730443   -0.3800
     22 C22        -3.3611    2.6276   52.3677 C.3     1  ZINC000864730443   -0.1000
     23 C23        -4.0050    3.9385   52.8297 C.3     1  ZINC000864730443   -0.1600
     24 C24        -3.1542    5.1148   52.3437 C.3     1  ZINC000864730443    0.0600
     25 O25        -3.0360    5.0597   50.9207 O.3     1  ZINC000864730443   -0.3700
     26 C26        -2.3983    3.8772   50.4335 C.3     1  ZINC000864730443    0.0800
     27 H27        -0.7051    2.7350   47.8432 H       1  ZINC000864730443    0.0900
     28 H28         0.5794    1.7229   47.1405 H       1  ZINC000864730443    0.0600
     29 H29         0.0891    3.2294   46.3291 H       1  ZINC000864730443    0.0700
     30 H30        -2.1389    3.3768   45.2084 H       1  ZINC000864730443    0.0700
     31 H31        -3.2361    1.9752   45.2213 H       1  ZINC000864730443    0.0600
     32 H32        -2.9333    2.8823   46.7226 H       1  ZINC000864730443    0.0900
     33 H33         0.1543    0.4496   45.0332 H       1  ZINC000864730443    0.0700
     34 H34        -1.4331    0.5546   44.2347 H       1  ZINC000864730443    0.0700
     35 H35        -0.3359    1.9562   44.2218 H       1  ZINC000864730443    0.0800
     36 H36        -3.3395    1.7010   48.4498 H       1  ZINC000864730443    0.4100
     37 H37        -2.9730    0.5109   50.8392 H       1  ZINC000864730443    0.0900
     38 H38        -1.4560    1.4256   50.6648 H       1  ZINC000864730443    0.0800
     39 H39        -5.4405    1.3865   51.4506 H       1  ZINC000864730443    0.4000
     40 H40        -6.8690    2.6512   49.1733 H       1  ZINC000864730443    0.0700
     41 H41        -7.2574    1.0404   49.8236 H       1  ZINC000864730443    0.0700
     42 H42        -7.4405    3.5448   51.5346 H       1  ZINC000864730443    0.0800
     43 H43        -8.8007    2.9965   50.5259 H       1  ZINC000864730443    0.0800
     44 H44        -8.8366    2.8041   53.9183 H       1  ZINC000864730443    0.0900
     45 H45       -10.0342    2.9029   52.5824 H       1  ZINC000864730443    0.0800
     46 H46        -9.4559    0.5411   54.4603 H       1  ZINC000864730443    0.0800
     47 H47       -11.0478    1.1854   53.9360 H       1  ZINC000864730443    0.0800
     48 H48        -9.7716   -0.9686   52.7056 H       1  ZINC000864730443    0.0700
     49 H49       -10.9448    0.0941   51.8813 H       1  ZINC000864730443    0.0700
     50 H50        -3.9912    1.7883   52.6622 H       1  ZINC000864730443    0.0800
     51 H51        -2.3767    2.5241   52.8243 H       1  ZINC000864730443    0.0800
     52 H52        -5.0088    4.0180   52.4126 H       1  ZINC000864730443    0.0900
     53 H53        -4.0596    3.9536   53.9182 H       1  ZINC000864730443    0.0800
     54 H54        -3.6303    6.0517   52.6329 H       1  ZINC000864730443    0.1000
     55 H55        -2.1630    5.0567   52.7933 H       1  ZINC000864730443    0.0500
     56 H56        -1.3971    3.8030   50.8582 H       1  ZINC000864730443    0.0700
     57 H57        -2.3299    3.9226   49.3467 H       1  ZINC000864730443    0.1000
@<TRIPOS>BOND
     1     1     2    1
     2     1    27    1
     3     1    28    1
     4     1    29    1
     5     2     3    1
     6     2     4    1
     7     2     5    1
     8     3    30    1
     9     3    31    1
    10     3    32    1
    11     4    33    1
    12     4    34    1
    13     4    35    1
    14     5     6    1
    15     6     7    2
    16     6     8   am
    17     8     9    1
    18     8    36    1
    19     9    10    1
    20     9    37    1
    21     9    38    1
    22    10    26    1
    23    10    11    1
    24    10    22    1
    25    11    12    2
    26    11    13   am
    27    13    14    1
    28    13    39    1
    29    14    15    1
    30    14    40    1
    31    14    41    1
    32    15    16    1
    33    15    42    1
    34    15    43    1
    35    16    17    1
    36    16    21    1
    37    16    18    1
    38    18    19    1
    39    18    44    1
    40    18    45    1
    41    19    20    1
    42    19    46    1
    43    19    47    1
    44    20    21    1
    45    20    48    1
    46    20    49    1
    47    22    23    1
    48    22    50    1
    49    22    51    1
    50    23    24    1
    51    23    52    1
    52    23    53    1
    53    24    25    1
    54    24    54    1
    55    24    55    1
    56    25    26    1
    57    26    56    1
    58    26    57    1
@<TRIPOS>SUBSTRUCTURE
     1 ZINC000864730443        1 TEMP              0 ****  ****    0 ROOT


##########                                Name:    ZINC000245764166
##########                DOCK_Rotatable_Bonds:                   8
##########                         Heavy_Atoms:                  26
##########                    Molecular_Weight:             359.512
##########                DOCK_Rotatable_Bonds:                   8
##########                       Formal_Charge:          -0.0100008
##########                     HBond_Acceptors:                   5
##########                        HBond_Donors:                   2
##########                         Heavy_Atoms:                  26
##########                          Grid_Score:          -29.779514
##########                     Grid_vdw_energy:          -29.038208
##########                      Grid_es_energy:           -0.741306
##########           Internal_energy_repulsive:           34.546276

@<TRIPOS>MOLECULE
ZINC000245764166
 59 61 1 0 0
SMALL
USER_CHARGES


@<TRIPOS>ATOM
      1 C1         -7.6065    0.0919   51.3915 C.3     1  ZINC000245764166    0.0200
      2 N2         -8.0766    1.4832   51.3594 N.3     1  ZINC000245764166   -0.5300
      3 C3         -9.3567    1.6229   52.0666 C.3     1  ZINC000245764166    0.0600
      4 C4         -9.1898    1.1840   53.4986 C.ar    1  ZINC000245764166   -0.0800
      5 C5         -9.4298   -0.1310   53.8509 C.ar    1  ZINC000245764166   -0.1000
      6 C6         -9.2769   -0.5336   55.1644 C.ar    1  ZINC000245764166   -0.1200
      7 C7         -8.8835    0.3786   56.1256 C.ar    1  ZINC000245764166   -0.1200
      8 C8         -8.6426    1.6935   55.7732 C.ar    1  ZINC000245764166   -0.1200
      9 C9         -8.7914    2.0951   54.4589 C.ar    1  ZINC000245764166   -0.1200
     10 C10        -7.0662    2.3932   51.9152 C.3     1  ZINC000245764166    0.0500
     11 C11        -6.1266    2.8546   50.7993 C.3     1  ZINC000245764166    0.1900
     12 C12        -6.8669    2.8166   49.4609 C.3     1  ZINC000245764166   -0.1600
     13 C13        -5.6601    4.2837   51.0836 C.3     1  ZINC000245764166   -0.1500
     14 N14        -4.9647    1.9643   50.7401 N.am    1  ZINC000245764166   -0.7400
     15 C15        -3.9868    2.1914   49.8408 C.2     1  ZINC000245764166    0.7000
     16 O16        -4.0696    3.1344   49.0778 O.2     1  ZINC000245764166   -0.5800
     17 N17        -2.9170    1.3733   49.7874 N.am    1  ZINC000245764166   -0.7500
     18 C18        -1.8550    1.6192   48.8087 C.3     1  ZINC000245764166    0.1800
     19 H19        -1.8343    2.6805   48.5609 H       1  ZINC000245764166    0.0900
     20 C20        -2.1406    0.8133   47.5441 C.3     1  ZINC000245764166   -0.1300
     21 C21        -1.0550    1.1270   46.5087 C.3     1  ZINC000245764166   -0.1100
     22 C22         0.2894    0.6563   47.0633 C.3     1  ZINC000245764166   -0.1100
     23 C23         0.6159    1.3408   48.3698 C.3     1  ZINC000245764166    0.0900
     24 H24         1.5181    0.8948   48.7885 H       1  ZINC000245764166    0.0600
     25 O25         0.8177    2.7535   48.2288 O.3     1  ZINC000245764166   -0.3600
     26 C26         0.7535    3.3029   49.5599 C.3     1  ZINC000245764166    0.0500
     27 C27        -0.1132    2.3502   50.4082 C.3     1  ZINC000245764166   -0.1500
     28 C28        -0.5087    1.2173   49.4149 C.3     1  ZINC000245764166   -0.1300
     29 H29        -0.5332    0.2353   49.8873 H       1  ZINC000245764166    0.1000
     30 H30        -8.3665   -0.5586   50.9587 H       1  ZINC000245764166    0.0800
     31 H31        -6.6847    0.0065   50.8162 H       1  ZINC000245764166    0.0700
     32 H32        -7.4194   -0.2048   52.4236 H       1  ZINC000245764166    0.0200
     33 H33        -9.6742    2.6653   52.0408 H       1  ZINC000245764166    0.0400
     34 H34       -10.1095    1.0015   51.5815 H       1  ZINC000245764166    0.1100
     35 H35        -9.7372   -0.8437   53.0999 H       1  ZINC000245764166    0.1200
     36 H36        -9.4651   -1.5608   55.4398 H       1  ZINC000245764166    0.1200
     37 H37        -8.7646    0.0642   57.1520 H       1  ZINC000245764166    0.1200
     38 H38        -8.3356    2.4063   56.5242 H       1  ZINC000245764166    0.1200
     39 H39        -8.6032    3.1223   54.1835 H       1  ZINC000245764166    0.1200
     40 H40        -7.5601    3.2593   52.3557 H       1  ZINC000245764166    0.0400
     41 H41        -6.4917    1.8736   52.6821 H       1  ZINC000245764166    0.1000
     42 H42        -7.7314    3.4790   49.5050 H       1  ZINC000245764166    0.0700
     43 H43        -6.1975    3.1452   48.6659 H       1  ZINC000245764166    0.0800
     44 H44        -7.1993    1.7984   49.2583 H       1  ZINC000245764166    0.0500
     45 H45        -5.0288    4.2898   51.9723 H       1  ZINC000245764166    0.0600
     46 H46        -5.0916    4.6566   50.2316 H       1  ZINC000245764166    0.0800
     47 H47        -6.5273    4.9228   51.2496 H       1  ZINC000245764166    0.0600
     48 H48        -4.8991    1.2113   51.3481 H       1  ZINC000245764166    0.3900
     49 H49        -2.8504    0.6218   50.3970 H       1  ZINC000245764166    0.3900
     50 H50        -2.1267   -0.2513   47.7778 H       1  ZINC000245764166    0.0600
     51 H51        -3.1167    1.0905   47.1462 H       1  ZINC000245764166    0.0700
     52 H52        -1.2723    0.6023   45.5783 H       1  ZINC000245764166    0.0700
     53 H53        -1.0212    2.2010   46.3258 H       1  ZINC000245764166    0.0700
     54 H54         0.2512   -0.4209   47.2249 H       1  ZINC000245764166    0.0800
     55 H55         1.0722    0.8796   46.3384 H       1  ZINC000245764166    0.0700
     56 H56         1.7560    3.3674   49.9828 H       1  ZINC000245764166    0.0600
     57 H57         0.2971    4.2923   49.5308 H       1  ZINC000245764166    0.0800
     58 H58         0.4648    1.9453   51.2390 H       1  ZINC000245764166    0.0800
     59 H59        -1.0013    2.8652   50.7742 H       1  ZINC000245764166    0.0800
@<TRIPOS>BOND
     1     1     2    1
     2     1    30    1
     3     1    31    1
     4     1    32    1
     5     2     3    1
     6     2    10    1
     7     3     4    1
     8     3    33    1
     9     3    34    1
    10     4     9   ar
    11     4     5   ar
    12     5     6   ar
    13     5    35    1
    14     6     7   ar
    15     6    36    1
    16     7     8   ar
    17     7    37    1
    18     8     9   ar
    19     8    38    1
    20     9    39    1
    21    10    11    1
    22    10    40    1
    23    10    41    1
    24    11    12    1
    25    11    13    1
    26    11    14    1
    27    12    42    1
    28    12    43    1
    29    12    44    1
    30    13    45    1
    31    13    46    1
    32    13    47    1
    33    14    15   am
    34    14    48    1
    35    15    16    2
    36    15    17   am
    37    17    18    1
    38    17    49    1
    39    18    19    1
    40    18    28    1
    41    18    20    1
    42    20    21    1
    43    20    50    1
    44    20    51    1
    45    21    22    1
    46    21    52    1
    47    21    53    1
    48    22    23    1
    49    22    54    1
    50    22    55    1
    51    23    24    1
    52    23    28    1
    53    23    25    1
    54    25    26    1
    55    26    27    1
    56    26    56    1
    57    26    57    1
    58    27    28    1
    59    27    58    1
    60    27    59    1
    61    28    29    1
@<TRIPOS>SUBSTRUCTURE
     1 ZINC000245764166        1 TEMP              0 ****  ****    0 ROOT


##########                                Name:    ZINC000065993627
##########                DOCK_Rotatable_Bonds:                   7
##########                         Heavy_Atoms:                  28
##########                    Molecular_Weight:             382.462
##########                DOCK_Rotatable_Bonds:                   7
##########                       Formal_Charge:          -0.0200002
##########                     HBond_Acceptors:                   7
##########                        HBond_Donors:                   2
##########                         Heavy_Atoms:                  28
##########                          Grid_Score:          -29.765894
##########                     Grid_vdw_energy:          -28.032398
##########                      Grid_es_energy:           -1.733496
##########           Internal_energy_repulsive:           37.746384

@<TRIPOS>MOLECULE
ZINC000065993627
 54 56 1 0 0
SMALL
USER_CHARGES


@<TRIPOS>ATOM
      1 C1         -4.6092    4.4647   56.1807 C.3     1  ZINC000065993627   -0.1200
      2 C2         -5.7806    3.6185   56.6079 C.ar    1  ZINC000065993627   -0.0700
      3 C3         -6.5548    4.0044   57.6838 C.ar    1  ZINC000065993627   -0.1800
      4 C4         -7.6347    3.2244   58.0776 C.ar    1  ZINC000065993627    0.2000
      5 N5         -8.4196    3.6155   59.1677 N.pl3   1  ZINC000065993627   -0.6400
      6 C6         -9.5774    4.4890   58.9609 C.3     1  ZINC000065993627    0.1000
      7 C7         -8.0839    3.1513   60.5161 C.3     1  ZINC000065993627    0.0900
      8 C8         -7.9351    2.0567   57.3889 C.ar    1  ZINC000065993627   -0.1800
      9 C9         -7.1604    1.6711   56.3127 C.ar    1  ZINC000065993627   -0.0800
     10 C10        -6.0848    2.4538   55.9158 C.ar    1  ZINC000065993627    0.1100
     11 N11        -5.2986    2.0623   54.8230 N.am    1  ZINC000065993627   -0.6800
     12 C12        -5.7627    2.2216   53.5677 C.2     1  ZINC000065993627    0.7000
     13 O13        -6.8631    2.7047   53.3829 O.2     1  ZINC000065993627   -0.5700
     14 N14        -5.0070    1.8452   52.5171 N.am    1  ZINC000065993627   -0.7400
     15 C15        -5.5106    2.0200   51.1525 C.3     1  ZINC000065993627    0.2100
     16 H16        -6.0309    2.9748   51.0767 H       1  ZINC000065993627    0.1000
     17 C17        -6.4786    0.8837   50.8167 C.3     1  ZINC000065993627   -0.1600
     18 C18        -4.3560    1.9987   50.1843 C.ar    1  ZINC000065993627   -0.1200
     19 C19        -4.4808    2.6060   48.9482 C.ar    1  ZINC000065993627   -0.0800
     20 C20        -3.4246    2.5882   48.0585 C.ar    1  ZINC000065993627   -0.1500
     21 C21        -2.2363    1.9596   48.4065 C.ar    1  ZINC000065993627    0.1800
     22 N22        -1.1639    1.9401   47.5075 N.am    1  ZINC000065993627   -0.5700
     23 C23         0.1415    1.3057   47.7466 C.3     1  ZINC000065993627    0.0600
     24 C24         0.9274    1.5834   46.4506 C.3     1  ZINC000065993627    0.0400
     25 O25        -0.0076    2.3373   45.6257 O.3     1  ZINC000065993627   -0.3200
     26 C26        -1.1608    2.4916   46.2861 C.2     1  ZINC000065993627    0.6400
     27 O27        -2.1150    3.0854   45.8243 O.2     1  ZINC000065993627   -0.5000
     28 C28        -2.1140    1.3506   49.6485 C.ar    1  ZINC000065993627   -0.1500
     29 C29        -3.1721    1.3768   50.5359 C.ar    1  ZINC000065993627   -0.0800
     30 H30        -4.9409    5.2021   55.4497 H       1  ZINC000065993627    0.0700
     31 H31        -4.1939    4.9755   57.0494 H       1  ZINC000065993627    0.0700
     32 H32        -3.8452    3.8285   55.7337 H       1  ZINC000065993627    0.0600
     33 H33        -6.3207    4.9124   58.2196 H       1  ZINC000065993627    0.1200
     34 H34       -10.4627    3.8809   58.7746 H       1  ZINC000065993627    0.0500
     35 H35        -9.7361    5.0988   59.8503 H       1  ZINC000065993627    0.0700
     36 H36        -9.3949    5.1372   58.1038 H       1  ZINC000065993627    0.0700
     37 H37        -7.1496    2.5907   60.4852 H       1  ZINC000065993627    0.0800
     38 H38        -7.9710    4.0097   61.1782 H       1  ZINC000065993627    0.0500
     39 H39        -8.8814    2.5080   60.8880 H       1  ZINC000065993627    0.0500
     40 H40        -8.7745    1.4499   57.6951 H       1  ZINC000065993627    0.1300
     41 H41        -7.3941    0.7629   55.7770 H       1  ZINC000065993627    0.1500
     42 H42        -4.4208    1.6769   54.9703 H       1  ZINC000065993627    0.4000
     43 H43        -4.1296    1.4587   52.6644 H       1  ZINC000065993627    0.4000
     44 H44        -7.3138    0.8991   51.5170 H       1  ZINC000065993627    0.0700
     45 H45        -6.8534    1.0136   49.8015 H       1  ZINC000065993627    0.0700
     46 H46        -5.9584   -0.0712   50.8926 H       1  ZINC000065993627    0.0600
     47 H47        -5.4055    3.0944   48.6780 H       1  ZINC000065993627    0.1300
     48 H48        -3.5227    3.0623   47.0932 H       1  ZINC000065993627    0.1600
     49 H49         0.6389    1.7636   48.6016 H       1  ZINC000065993627    0.1000
     50 H50         0.0234    0.2331   47.9004 H       1  ZINC000065993627    0.1000
     51 H51         1.8157    2.1784   46.6625 H       1  ZINC000065993627    0.1100
     52 H52         1.2004    0.6483   45.9615 H       1  ZINC000065993627    0.1100
     53 H53        -1.1913    0.8606   49.9218 H       1  ZINC000065993627    0.1300
     54 H54        -3.0776    0.9037   51.5021 H       1  ZINC000065993627    0.1300
@<TRIPOS>BOND
     1     1     2    1
     2     1    30    1
     3     1    31    1
     4     1    32    1
     5     2    10   ar
     6     2     3   ar
     7     3     4   ar
     8     3    33    1
     9     4     5    1
    10     4     8   ar
    11     5     6    1
    12     5     7    1
    13     6    34    1
    14     6    35    1
    15     6    36    1
    16     7    37    1
    17     7    38    1
    18     7    39    1
    19     8     9   ar
    20     8    40    1
    21     9    10   ar
    22     9    41    1
    23    10    11    1
    24    11    12   am
    25    11    42    1
    26    12    13    2
    27    12    14   am
    28    14    15    1
    29    14    43    1
    30    15    16    1
    31    15    17    1
    32    15    18    1
    33    17    44    1
    34    17    45    1
    35    17    46    1
    36    18    29   ar
    37    18    19   ar
    38    19    20   ar
    39    19    47    1
    40    20    21   ar
    41    20    48    1
    42    21    22    1
    43    21    28   ar
    44    22    26   am
    45    22    23    1
    46    23    24    1
    47    23    49    1
    48    23    50    1
    49    24    25    1
    50    24    51    1
    51    24    52    1
    52    25    26    1
    53    26    27    2
    54    28    29   ar
    55    28    53    1
    56    29    54    1
@<TRIPOS>SUBSTRUCTURE
     1 ZINC000065993627        1 TEMP              0 ****  ****    0 ROOT


##########                                Name:    ZINC000588570917
##########                DOCK_Rotatable_Bonds:                   7
##########                         Heavy_Atoms:                  25
##########                    Molecular_Weight:             366.481
##########                DOCK_Rotatable_Bonds:                   7
##########                       Formal_Charge:          -0.0100006
##########                     HBond_Acceptors:                   7
##########                        HBond_Donors:                   1
##########                         Heavy_Atoms:                  25
##########                          Grid_Score:          -29.748930
##########                     Grid_vdw_energy:          -29.398323
##########                      Grid_es_energy:           -0.350607
##########           Internal_energy_repulsive:           12.884106

@<TRIPOS>MOLECULE
ZINC000588570917
 51 52 1 0 0
SMALL
USER_CHARGES


@<TRIPOS>ATOM
      1 C1         -4.7270    1.4788   50.7315 C.3     1  ZINC000588570917   -0.1300
      2 C2         -5.7530    2.4225   50.1590 C.2     1  ZINC000588570917   -0.0500
      3 C3         -7.0094    2.3823   50.5939 C.2     1  ZINC000588570917   -0.2000
      4 C4         -8.0351    3.3272   50.0228 C.3     1  ZINC000588570917   -0.0900
      5 C5         -8.0475    4.6207   50.8397 C.3     1  ZINC000588570917   -0.1500
      6 C6         -7.3976    1.4158   51.6322 C.2     1  ZINC000588570917    0.5600
      7 O7         -7.2290    0.2254   51.4484 O.2     1  ZINC000588570917   -0.5100
      8 N8         -7.9403    1.8491   52.7872 N.am    1  ZINC000588570917   -0.6800
      9 C9         -8.3095    0.9302   53.7744 C.ar    1  ZINC000588570917    0.2100
     10 C10        -9.2902   -0.0174   53.5115 C.ar    1  ZINC000588570917   -0.1700
     11 C11        -9.6520   -0.9239   54.4887 C.ar    1  ZINC000588570917    0.0000
     12 C12        -9.0390   -0.8887   55.7277 C.ar    1  ZINC000588570917   -0.7000
     13 S13        -9.5036   -2.0471   56.9716 S.o2    1  ZINC000588570917    2.6900
     14 O14        -9.3298   -3.3377   56.4030 O.2     1  ZINC000588570917   -0.9500
     15 O15        -8.8590   -1.6315   58.1677 O.2     1  ZINC000588570917   -0.9500
     16 N16       -11.1293   -1.8644   57.2288 N.am    1  ZINC000588570917   -1.0000
     17 C17       -12.0602   -2.9842   57.0168 C.3     1  ZINC000588570917    0.0900
     18 C18       -12.9392   -3.1251   58.2649 C.3     1  ZINC000588570917    0.0700
     19 H19       -12.3283   -3.4552   59.1051 H       1  ZINC000588570917    0.0700
     20 C20       -14.0418   -4.1523   58.0001 C.3     1  ZINC000588570917   -0.1500
     21 O21       -13.5283   -1.8590   58.5711 O.3     1  ZINC000588570917   -0.3700
     22 C22       -12.5827   -0.8360   58.8926 C.3     1  ZINC000588570917    0.0800
     23 H23       -13.1124    0.0797   59.1551 H       1  ZINC000588570917    0.1200
     24 C24       -11.7243   -1.2872   60.0759 C.3     1  ZINC000588570917   -0.1900
     25 C25       -11.6849   -0.5795   57.6821 C.3     1  ZINC000588570917    0.0900
     26 C26        -8.0618    0.0532   55.9926 C.ar    1  ZINC000588570917    0.0000
     27 C27        -7.6919    0.9594   55.0182 C.ar    1  ZINC000588570917   -0.1400
     28 H28        -3.7628    1.6586   50.2561 H       1  ZINC000588570917    0.0600
     29 H29        -4.6394    1.6451   51.8051 H       1  ZINC000588570917    0.0800
     30 H30        -5.0366    0.4500   50.5472 H       1  ZINC000588570917    0.0800
     31 H31        -5.4682    3.1313   49.3956 H       1  ZINC000588570917    0.1300
     32 H32        -7.7833    3.5540   48.9869 H       1  ZINC000588570917    0.0700
     33 H33        -9.0201    2.8621   50.0638 H       1  ZINC000588570917    0.0800
     34 H34        -7.0626    5.0858   50.7987 H       1  ZINC000588570917    0.0500
     35 H35        -8.7894    5.3043   50.4267 H       1  ZINC000588570917    0.0600
     36 H36        -8.2994    4.3939   51.8757 H       1  ZINC000588570917    0.0600
     37 H37        -8.0748    2.7985   52.9337 H       1  ZINC000588570917    0.4100
     38 H38        -9.7697   -0.0452   52.5441 H       1  ZINC000588570917    0.1400
     39 H39       -10.4148   -1.6609   54.2849 H       1  ZINC000588570917    0.1400
     40 H40       -12.6863   -2.7816   56.1479 H       1  ZINC000588570917    0.0900
     41 H41       -11.4977   -3.9043   56.8582 H       1  ZINC000588570917    0.1000
     42 H42       -13.5912   -5.1160   57.7628 H       1  ZINC000588570917    0.0700
     43 H43       -14.6663   -4.2520   58.8878 H       1  ZINC000588570917    0.0700
     44 H44       -14.6534   -3.8207   57.1609 H       1  ZINC000588570917    0.0700
     45 H45       -11.1936   -2.2019   59.8120 H       1  ZINC000588570917    0.0600
     46 H46       -11.0037   -0.5067   60.3204 H       1  ZINC000588570917    0.0700
     47 H47       -12.3640   -1.4742   60.9384 H       1  ZINC000588570917    0.0700
     48 H48       -10.8749    0.0941   57.9620 H       1  ZINC000588570917    0.1000
     49 H49       -12.2711   -0.1351   56.8777 H       1  ZINC000588570917    0.0900
     50 H50        -7.5850    0.0780   56.9613 H       1  ZINC000588570917    0.1400
     51 H51        -6.9284    1.6945   55.2256 H       1  ZINC000588570917    0.1500
@<TRIPOS>BOND
     1     1     2    1
     2     1    28    1
     3     1    29    1
     4     1    30    1
     5     2     3    2
     6     2    31    1
     7     3     4    1
     8     3     6    1
     9     4     5    1
    10     4    32    1
    11     4    33    1
    12     5    34    1
    13     5    35    1
    14     5    36    1
    15     6     7    2
    16     6     8   am
    17     8     9    1
    18     8    37    1
    19     9    27   ar
    20     9    10   ar
    21    10    11   ar
    22    10    38    1
    23    11    12   ar
    24    11    39    1
    25    12    13    1
    26    12    26   ar
    27    13    14    2
    28    13    15    2
    29    13    16   am
    30    16    25    1
    31    16    17    1
    32    17    18    1
    33    17    40    1
    34    17    41    1
    35    18    19    1
    36    18    20    1
    37    18    21    1
    38    20    42    1
    39    20    43    1
    40    20    44    1
    41    21    22    1
    42    22    23    1
    43    22    24    1
    44    22    25    1
    45    24    45    1
    46    24    46    1
    47    24    47    1
    48    25    48    1
    49    25    49    1
    50    26    27   ar
    51    26    50    1
    52    27    51    1
@<TRIPOS>SUBSTRUCTURE
     1 ZINC000588570917        1 TEMP              0 ****  ****    0 ROOT


##########                                Name:    ZINC000151303733
##########                DOCK_Rotatable_Bonds:                   7
##########                         Heavy_Atoms:                  26
##########                    Molecular_Weight:             369.444
##########                DOCK_Rotatable_Bonds:                   7
##########                       Formal_Charge:        -1.93715e-07
##########                     HBond_Acceptors:                   7
##########                        HBond_Donors:                   2
##########                         Heavy_Atoms:                  26
##########                          Grid_Score:          -29.734781
##########                     Grid_vdw_energy:          -27.952768
##########                      Grid_es_energy:           -1.782013
##########           Internal_energy_repulsive:            7.089236

@<TRIPOS>MOLECULE
ZINC000151303733
 45 48 1 0 0
SMALL
USER_CHARGES


@<TRIPOS>ATOM
      1 C1        -18.9443   -2.8465   58.3212 C.3     1  ZINC000151303733   -0.1000
      2 C2        -18.3312   -1.5715   57.8019 C.2     1  ZINC000151303733   -0.1200
      3 C3        -19.0588   -0.4931   57.5082 C.2     1  ZINC000151303733   -0.2000
      4 S4        -18.0069    0.7936   56.9334 S.3     1  ZINC000151303733    0.1200
      5 C5        -16.5918   -0.2324   57.1283 C.2     1  ZINC000151303733   -0.2400
      6 C6        -16.9658   -1.4281   57.5982 C.2     1  ZINC000151303733    0.1200
      7 N7        -16.0475   -2.4628   57.8563 N.am    1  ZINC000151303733   -0.6400
      8 C8        -15.1130   -2.3107   58.8155 C.2     1  ZINC000151303733    0.5100
      9 O9        -15.0634   -1.2819   59.4563 O.2     1  ZINC000151303733   -0.5100
     10 C10       -14.1296   -3.4187   59.0919 C.3     1  ZINC000151303733    0.1000
     11 N11       -13.0825   -3.4091   58.0674 N.am    1  ZINC000151303733   -0.7100
     12 C12       -11.9260   -2.7544   58.2919 C.2     1  ZINC000151303733    0.5200
     13 O13       -11.7529   -2.1721   59.3416 O.2     1  ZINC000151303733   -0.5100
     14 C14       -10.8482   -2.7460   57.2388 C.3     1  ZINC000151303733    0.1600
     15 H15       -11.1954   -3.2622   56.3438 H       1  ZINC000151303733    0.1300
     16 C16        -9.6010   -3.4085   57.7683 C.ar    1  ZINC000151303733   -0.0900
     17 C17        -9.3303   -4.6758   58.2291 C.ar    1  ZINC000151303733   -0.0900
     18 C18        -8.0542   -4.9968   58.6615 C.ar    1  ZINC000151303733   -0.0800
     19 C19        -7.0499   -4.0458   58.6315 C.ar    1  ZINC000151303733   -0.1200
     20 C20        -7.3108   -2.7714   58.1712 C.ar    1  ZINC000151303733   -0.0400
     21 C21        -8.5942   -2.4405   57.7337 C.ar    1  ZINC000151303733   -0.1500
     22 C22        -9.1710   -1.1922   57.1989 C.2     1  ZINC000151303733    0.5600
     23 O23        -8.5568   -0.1553   57.0402 O.2     1  ZINC000151303733   -0.5100
     24 N24       -10.4739   -1.3655   56.9114 N.am    1  ZINC000151303733   -0.5700
     25 C25       -11.3697   -0.3443   56.3629 C.3     1  ZINC000151303733    0.0900
     26 C26       -10.9884    0.2824   55.0202 C.3     1  ZINC000151303733   -0.1800
     27 C27       -12.1582   -0.7003   55.1010 C.3     1  ZINC000151303733   -0.1900
     28 H28       -18.9841   -2.8133   59.4100 H       1  ZINC000151303733    0.0700
     29 H29       -19.9537   -2.9525   57.9238 H       1  ZINC000151303733    0.0700
     30 H30       -18.3384   -3.6958   58.0056 H       1  ZINC000151303733    0.0600
     31 H31       -20.1318   -0.4210   57.6078 H       1  ZINC000151303733    0.1700
     32 H32       -15.5759    0.0596   56.9067 H       1  ZINC000151303733    0.2000
     33 H33       -16.0871   -3.2853   57.3438 H       1  ZINC000151303733    0.4200
     34 H34       -13.6793   -3.2684   60.0731 H       1  ZINC000151303733    0.1100
     35 H35       -14.6477   -4.3774   59.0729 H       1  ZINC000151303733    0.1100
     36 H36       -13.2215   -3.8738   57.2274 H       1  ZINC000151303733    0.4100
     37 H37       -10.1124   -5.4202   58.2540 H       1  ZINC000151303733    0.1300
     38 H38        -7.8427   -5.9920   59.0235 H       1  ZINC000151303733    0.1400
     39 H39        -6.0569   -4.3020   58.9705 H       1  ZINC000151303733    0.1400
     40 H40        -6.5237   -2.0321   58.1492 H       1  ZINC000151303733    0.1400
     41 H41       -11.8578    0.2965   57.0972 H       1  ZINC000151303733    0.1400
     42 H42       -11.2255    1.3359   54.8711 H       1  ZINC000151303733    0.1000
     43 H43       -10.0711   -0.0649   54.5451 H       1  ZINC000151303733    0.1300
     44 H44       -12.0105   -1.6944   54.6789 H       1  ZINC000151303733    0.1000
     45 H45       -13.1649   -0.2936   55.0050 H       1  ZINC000151303733    0.1000
@<TRIPOS>BOND
     1     1     2    1
     2     1    28    1
     3     1    29    1
     4     1    30    1
     5     2     6    1
     6     2     3    2
     7     3     4    1
     8     3    31    1
     9     4     5    1
    10     5     6    2
    11     5    32    1
    12     6     7    1
    13     7     8   am
    14     7    33    1
    15     8     9    2
    16     8    10    1
    17    10    11    1
    18    10    34    1
    19    10    35    1
    20    11    12   am
    21    11    36    1
    22    12    13    2
    23    12    14    1
    24    14    15    1
    25    14    24    1
    26    14    16    1
    27    16    21   ar
    28    16    17   ar
    29    17    18   ar
    30    17    37    1
    31    18    19   ar
    32    18    38    1
    33    19    20   ar
    34    19    39    1
    35    20    21   ar
    36    20    40    1
    37    21    22    1
    38    22    23    2
    39    22    24   am
    40    24    25    1
    41    25    27    1
    42    25    26    1
    43    25    41    1
    44    26    27    1
    45    26    42    1
    46    26    43    1
    47    27    44    1
    48    27    45    1
@<TRIPOS>SUBSTRUCTURE
     1 ZINC000151303733        1 TEMP              0 ****  ****    0 ROOT


##########                                Name:    ZINC000504638019
##########                DOCK_Rotatable_Bonds:                   8
##########                         Heavy_Atoms:                  24
##########                    Molecular_Weight:             328.454
##########                DOCK_Rotatable_Bonds:                   8
##########                       Formal_Charge:        -1.49012e-08
##########                     HBond_Acceptors:                   4
##########                        HBond_Donors:                   1
##########                         Heavy_Atoms:                  24
##########                          Grid_Score:          -29.734076
##########                     Grid_vdw_energy:          -29.625828
##########                      Grid_es_energy:           -0.108247
##########           Internal_energy_repulsive:           12.938402

@<TRIPOS>MOLECULE
ZINC000504638019
 52 53 1 0 0
SMALL
USER_CHARGES


@<TRIPOS>ATOM
      1 C1         -1.3174    1.1599   48.3000 C.3     1  ZINC000504638019   -0.1200
      2 C2         -2.5649    1.5022   49.0730 C.ar    1  ZINC000504638019   -0.0900
      3 C3         -2.6795    1.1315   50.3998 C.ar    1  ZINC000504638019   -0.1200
      4 C4         -3.8237    1.4455   51.1088 C.ar    1  ZINC000504638019   -0.1100
      5 C5         -4.8534    2.1306   50.4912 C.ar    1  ZINC000504638019   -0.0900
      6 C6         -6.1011    2.4724   51.2641 C.3     1  ZINC000504638019   -0.0600
      7 H7         -6.0571    2.0079   52.2491 H       1  ZINC000504638019    0.0900
      8 C8         -6.2041    3.9910   51.4206 C.3     1  ZINC000504638019   -0.1500
      9 C9         -7.3267    1.9533   50.5096 C.3     1  ZINC000504638019    0.1300
     10 N10        -8.4046    1.6747   51.4618 N.am    1  ZINC000504638019   -0.7000
     11 C11        -8.6412    0.4093   51.8607 C.2     1  ZINC000504638019    0.5100
     12 O12        -7.9605   -0.4993   51.4321 O.2     1  ZINC000504638019   -0.5100
     13 C13        -9.7421    0.1250   52.8307 C.2     1  ZINC000504638019    0.5100
     14 O14       -10.7146   -0.5083   52.4762 O.2     1  ZINC000504638019   -0.5200
     15 N15        -9.6546    0.5718   54.0992 N.am    1  ZINC000504638019   -0.5800
     16 C16        -8.4805    1.3362   54.5272 C.3     1  ZINC000504638019    0.0600
     17 C17       -10.7337    0.2931   55.0500 C.3     1  ZINC000504638019    0.1100
     18 C18       -10.6408   -1.1616   55.5148 C.3     1  ZINC000504638019   -0.1000
     19 H19       -10.4352   -1.8067   54.6606 H       1  ZINC000504638019    0.0800
     20 C20       -11.9603   -1.5782   56.1681 C.3     1  ZINC000504638019   -0.0800
     21 C21       -11.7998   -2.8999   56.8604 C.2     1  ZINC000504638019   -0.1500
     22 C22       -10.6566   -3.4233   57.1681 C.2     1  ZINC000504638019   -0.1600
     23 C23        -9.3317   -2.7863   56.8665 C.3     1  ZINC000504638019   -0.0900
     24 C24        -9.5167   -1.3017   56.5491 C.3     1  ZINC000504638019   -0.1100
     25 C25        -4.7383    2.5025   49.1649 C.ar    1  ZINC000504638019   -0.1100
     26 C26        -3.5923    2.1919   48.4569 C.ar    1  ZINC000504638019   -0.1200
     27 H27        -0.5928    1.9676   48.4035 H       1  ZINC000504638019    0.0700
     28 H28        -0.8900    0.2362   48.6904 H       1  ZINC000504638019    0.0700
     29 H29        -1.5669    1.0283   47.2472 H       1  ZINC000504638019    0.0700
     30 H30        -1.8750    0.5962   50.8823 H       1  ZINC000504638019    0.1200
     31 H31        -3.9135    1.1552   52.1452 H       1  ZINC000504638019    0.1200
     32 H32        -7.1066    4.2382   51.9795 H       1  ZINC000504638019    0.0600
     33 H33        -5.3310    4.3609   51.9581 H       1  ZINC000504638019    0.0600
     34 H34        -6.2481    4.4556   50.4356 H       1  ZINC000504638019    0.0600
     35 H35        -7.6590    2.7058   49.7946 H       1  ZINC000504638019    0.0800
     36 H36        -7.0655    1.0378   49.9785 H       1  ZINC000504638019    0.0800
     37 H37        -8.9480    2.4012   51.8054 H       1  ZINC000504638019    0.4100
     38 H38        -8.6128    2.3849   54.2610 H       1  ZINC000504638019    0.0600
     39 H39        -8.3631    1.2477   55.6073 H       1  ZINC000504638019    0.0700
     40 H40        -7.5918    0.9450   54.0318 H       1  ZINC000504638019    0.1100
     41 H41       -10.6403    0.9560   55.9102 H       1  ZINC000504638019    0.0900
     42 H42       -11.6962    0.4592   54.5662 H       1  ZINC000504638019    0.0900
     43 H43       -12.2575   -0.8229   56.8958 H       1  ZINC000504638019    0.0800
     44 H44       -12.7317   -1.6626   55.4026 H       1  ZINC000504638019    0.0600
     45 H45       -12.6937   -3.4484   57.1182 H       1  ZINC000504638019    0.1000
     46 H46       -10.6561   -4.3777   57.6736 H       1  ZINC000504638019    0.1000
     47 H47        -8.6746   -2.8929   57.7296 H       1  ZINC000504638019    0.0700
     48 H48        -8.8797   -3.2819   56.0075 H       1  ZINC000504638019    0.0700
     49 H49        -8.5890   -0.8947   56.1468 H       1  ZINC000504638019    0.0700
     50 H50        -9.7930   -0.7646   57.4565 H       1  ZINC000504638019    0.0700
     51 H51        -5.5425    3.0382   48.6824 H       1  ZINC000504638019    0.1200
     52 H52        -3.5024    2.4825   47.4206 H       1  ZINC000504638019    0.1200
@<TRIPOS>BOND
     1     1     2    1
     2     1    27    1
     3     1    28    1
     4     1    29    1
     5     2    26   ar
     6     2     3   ar
     7     3     4   ar
     8     3    30    1
     9     4     5   ar
    10     4    31    1
    11     5     6    1
    12     5    25   ar
    13     6     7    1
    14     6     8    1
    15     6     9    1
    16     8    32    1
    17     8    33    1
    18     8    34    1
    19     9    10    1
    20     9    35    1
    21     9    36    1
    22    10    11   am
    23    10    37    1
    24    11    12    2
    25    11    13    1
    26    13    14    2
    27    13    15   am
    28    15    16    1
    29    15    17    1
    30    16    38    1
    31    16    39    1
    32    16    40    1
    33    17    18    1
    34    17    41    1
    35    17    42    1
    36    18    19    1
    37    18    24    1
    38    18    20    1
    39    20    21    1
    40    20    43    1
    41    20    44    1
    42    21    22    2
    43    21    45    1
    44    22    23    1
    45    22    46    1
    46    23    24    1
    47    23    47    1
    48    23    48    1
    49    24    49    1
    50    24    50    1
    51    25    26   ar
    52    25    51    1
    53    26    52    1
@<TRIPOS>SUBSTRUCTURE
     1 ZINC000504638019        1 TEMP              0 ****  ****    0 ROOT


##########                                Name:    ZINC001110536231
##########                DOCK_Rotatable_Bonds:                   8
##########                         Heavy_Atoms:                  24
##########                    Molecular_Weight:             329.442
##########                DOCK_Rotatable_Bonds:                   8
##########                       Formal_Charge:          -0.0400001
##########                     HBond_Acceptors:                   5
##########                        HBond_Donors:                   1
##########                         Heavy_Atoms:                  24
##########                          Grid_Score:          -29.732880
##########                     Grid_vdw_energy:          -29.062937
##########                      Grid_es_energy:           -0.669944
##########           Internal_energy_repulsive:           33.710533

@<TRIPOS>MOLECULE
ZINC001110536231
 51 53 1 0 0
SMALL
USER_CHARGES


@<TRIPOS>ATOM
      1 C1         -0.9604    0.6253   45.6688 C.3     1  ZINC001110536231   -0.1300
      2 C2         -0.9204    0.0583   47.0893 C.3     1  ZINC001110536231   -0.1000
      3 C3         -0.1719    1.0082   47.9884 C.2     1  ZINC001110536231   -0.0200
      4 C4          1.3325    0.9513   48.0590 C.3     1  ZINC001110536231   -0.1300
      5 C5         -0.8387    1.8969   48.7195 C.2     1  ZINC001110536231   -0.2400
      6 C6         -2.3070    1.9524   48.6505 C.2     1  ZINC001110536231    0.5400
      7 O7         -2.8616    2.0575   47.5733 O.2     1  ZINC001110536231   -0.5300
      8 N8         -3.0377    1.8870   49.7811 N.am    1  ZINC001110536231   -0.7300
      9 C9         -4.5001    1.9406   49.7122 C.3     1  ZINC001110536231    0.1100
     10 H10        -4.8508    1.5846   48.7435 H       1  ZINC001110536231    0.1000
     11 C11        -5.0062    3.3791   49.9801 C.3     1  ZINC001110536231   -0.1600
     12 C12        -5.8787    3.2255   51.2622 C.3     1  ZINC001110536231    0.0500
     13 H13        -6.0425    4.1400   51.8325 H       1  ZINC001110536231    0.1200
     14 C14        -7.1674    2.4882   50.7882 C.3     1  ZINC001110536231   -0.1200
     15 C15        -6.6773    1.0462   50.5091 C.3     1  ZINC001110536231   -0.1100
     16 C16        -5.1346    1.1064   50.8658 C.3     1  ZINC001110536231    0.0400
     17 H17        -4.6649    0.1480   51.0868 H       1  ZINC001110536231    0.1200
     18 N18        -5.1431    2.1250   51.9814 N.3     1  ZINC001110536231   -0.4900
     19 C19        -3.7759    2.5298   52.3351 C.3     1  ZINC001110536231    0.0600
     20 C20        -3.7233    2.8989   53.7952 C.ar    1  ZINC001110536231    0.0100
     21 C21        -2.5099    3.1477   54.4212 C.ar    1  ZINC001110536231   -0.2100
     22 C22        -2.4970    3.4840   55.7605 C.ar    1  ZINC001110536231    0.1400
     23 N23        -3.6205    3.5706   56.4467 N.ar    1  ZINC001110536231   -0.5400
     24 C24        -4.7961    3.3409   55.8855 C.ar    1  ZINC001110536231    0.3200
     25 O25        -5.9267    3.4417   56.6288 O.3     1  ZINC001110536231   -0.3100
     26 C26        -5.7697    3.8008   58.0030 C.3     1  ZINC001110536231    0.0400
     27 C27        -4.8846    3.0031   54.5413 C.ar    1  ZINC001110536231   -0.1700
     28 H28        -1.5019   -0.0618   45.0186 H       1  ZINC001110536231    0.0500
     29 H29        -1.4651    1.5913   45.6773 H       1  ZINC001110536231    0.0700
     30 H30         0.0571    0.7501   45.2986 H       1  ZINC001110536231    0.0400
     31 H31        -1.9380   -0.0665   47.4595 H       1  ZINC001110536231    0.0900
     32 H32        -0.4157   -0.9078   47.0808 H       1  ZINC001110536231    0.0600
     33 H33         1.7570    1.6166   47.3072 H       1  ZINC001110536231    0.0800
     34 H34         1.6618    1.2653   49.0496 H       1  ZINC001110536231    0.0700
     35 H35         1.6666   -0.0691   47.8716 H       1  ZINC001110536231    0.0700
     36 H36        -0.3021    2.5776   49.3638 H       1  ZINC001110536231    0.1200
     37 H37        -2.5954    1.8044   50.6404 H       1  ZINC001110536231    0.4000
     38 H38        -4.1689    4.0524   50.1642 H       1  ZINC001110536231    0.0700
     39 H39        -5.6100    3.7352   49.1454 H       1  ZINC001110536231    0.0800
     40 H40        -7.9225    2.4914   51.5743 H       1  ZINC001110536231    0.0700
     41 H41        -7.5575    2.9439   49.8782 H       1  ZINC001110536231    0.0700
     42 H42        -7.1896    0.3347   51.1567 H       1  ZINC001110536231    0.0800
     43 H43        -6.8245    0.7872   49.4606 H       1  ZINC001110536231    0.0700
     44 H44        -3.0914    1.7032   52.1443 H       1  ZINC001110536231    0.0900
     45 H45        -3.4842    3.3897   51.7322 H       1  ZINC001110536231    0.0700
     46 H46        -1.5855    3.0786   53.8669 H       1  ZINC001110536231    0.1300
     47 H47        -1.5554    3.6783   56.2523 H       1  ZINC001110536231    0.1600
     48 H48        -6.7484    3.8463   58.4807 H       1  ZINC001110536231    0.1000
     49 H49        -5.1543    3.0546   58.5056 H       1  ZINC001110536231    0.0600
     50 H50        -5.2866    4.7756   58.0709 H       1  ZINC001110536231    0.0600
     51 H51        -5.8461    2.8166   54.0861 H       1  ZINC001110536231    0.1400
@<TRIPOS>BOND
     1     1     2    1
     2     1    28    1
     3     1    29    1
     4     1    30    1
     5     2     3    1
     6     2    31    1
     7     2    32    1
     8     3     4    1
     9     3     5    2
    10     4    33    1
    11     4    34    1
    12     4    35    1
    13     5     6    1
    14     5    36    1
    15     6     7    2
    16     6     8   am
    17     8     9    1
    18     8    37    1
    19     9    10    1
    20     9    16    1
    21     9    11    1
    22    11    12    1
    23    11    38    1
    24    11    39    1
    25    12    13    1
    26    12    18    1
    27    12    14    1
    28    14    15    1
    29    14    40    1
    30    14    41    1
    31    15    16    1
    32    15    42    1
    33    15    43    1
    34    16    17    1
    35    16    18    1
    36    18    19    1
    37    19    20    1
    38    19    44    1
    39    19    45    1
    40    20    27   ar
    41    20    21   ar
    42    21    22   ar
    43    21    46    1
    44    22    23   ar
    45    22    47    1
    46    23    24   ar
    47    24    25    1
    48    24    27   ar
    49    25    26    1
    50    26    48    1
    51    26    49    1
    52    26    50    1
    53    27    51    1
@<TRIPOS>SUBSTRUCTURE
     1 ZINC001110536231        1 TEMP              0 ****  ****    0 ROOT


##########                                Name:    ZINC000652498551
##########                DOCK_Rotatable_Bonds:                   6
##########                         Heavy_Atoms:                  23
##########                    Molecular_Weight:             388.277
##########                DOCK_Rotatable_Bonds:                   6
##########                       Formal_Charge:          -0.0400001
##########                     HBond_Acceptors:                   5
##########                        HBond_Donors:                   1
##########                         Heavy_Atoms:                  23
##########                          Grid_Score:          -29.713076
##########                     Grid_vdw_energy:          -23.666382
##########                      Grid_es_energy:           -6.046693
##########           Internal_energy_repulsive:           16.366976

@<TRIPOS>MOLECULE
ZINC000652498551
 46 47 1 0 0
SMALL
USER_CHARGES


@<TRIPOS>ATOM
      1 C1        -13.1364    0.7630   60.4391 C.3     1  ZINC000652498551   -0.1300
      2 C2        -12.3274    1.4875   61.5169 C.3     1  ZINC000652498551   -0.1300
      3 C3        -12.2562    2.9793   61.1846 C.3     1  ZINC000652498551   -0.1300
      4 C4        -12.9947    1.3022   62.8553 C.2     1  ZINC000652498551    0.5000
      5 O5        -13.5412    0.2457   63.1231 O.co2   1  ZINC000652498551   -0.7000
      6 O6        -12.9881    2.2089   63.6705 O.co2   1  ZINC000652498551   -0.6700
      7 C7        -10.9123    0.9082   61.5680 C.3     1  ZINC000652498551   -0.0600
      8 H8        -10.9647   -0.1805   61.5742 H       1  ZINC000652498551    0.0700
      9 C9        -10.2067    1.3935   62.8376 C.3     1  ZINC000652498551   -0.1500
     10 C10        -8.7666    0.8725   62.8402 C.3     1  ZINC000652498551   -0.1400
     11 C11        -8.0580    1.3414   61.5677 C.3     1  ZINC000652498551   -0.0100
     12 N12        -8.7651    0.8234   60.3904 N.4     1  ZINC000652498551   -0.3800
     13 H13        -8.8139   -0.1830   60.4444 H       1  ZINC000652498551    0.4200
     14 C14        -8.0387    1.2123   59.1743 C.3     1  ZINC000652498551    0.0000
     15 C15        -7.1261    0.0649   58.7365 C.3     1  ZINC000652498551    0.0200
     16 O16        -7.6475   -0.5311   57.5469 O.3     1  ZINC000652498551   -0.3100
     17 C17        -8.2247   -1.7551   57.6721 C.ar    1  ZINC000652498551    0.1600
     18 C18        -7.4857   -2.8251   58.1536 C.ar    1  ZINC000652498551   -0.2300
     19 C19        -8.0756   -4.0707   58.2802 C.ar    1  ZINC000652498551    0.1500
     20 F20        -7.3566   -5.1138   58.7492 F       1  ZINC000652498551   -0.1200
     21 C21        -9.4024   -4.2478   57.9265 C.ar    1  ZINC000652498551   -0.1600
     22 C22       -10.1401   -3.1808   57.4455 C.ar    1  ZINC000652498551   -0.0300
     23 Br23      -11.9520   -3.4261   56.9635 Br      1  ZINC000652498551   -0.0100
     24 C24        -9.5557   -1.9341   57.3233 C.ar    1  ZINC000652498551   -0.1300
     25 C25       -10.1246    1.3749   60.3421 C.3     1  ZINC000652498551   -0.0200
     26 H26       -12.6538    0.8970   59.4710 H       1  ZINC000652498551    0.0400
     27 H27       -13.1872   -0.2997   60.6758 H       1  ZINC000652498551    0.0500
     28 H28       -14.1446    1.1756   60.4027 H       1  ZINC000652498551    0.0600
     29 H29       -13.2644    3.3919   61.1482 H       1  ZINC000652498551    0.0700
     30 H30       -11.6800    3.4954   61.9525 H       1  ZINC000652498551    0.0400
     31 H31       -11.7736    3.1133   60.2165 H       1  ZINC000652498551    0.0500
     32 H32       -10.2001    2.4832   62.8571 H       1  ZINC000652498551    0.1300
     33 H33       -10.7327    1.0152   63.7141 H       1  ZINC000652498551    0.0800
     34 H34        -8.2412    1.2596   63.7132 H       1  ZINC000652498551    0.1000
     35 H35        -8.7737   -0.2170   62.8725 H       1  ZINC000652498551    0.0700
     36 H36        -8.0512    2.4309   61.5366 H       1  ZINC000652498551    0.1300
     37 H37        -7.0324    0.9724   61.5665 H       1  ZINC000652498551    0.1100
     38 H38        -8.7517    1.4327   58.3799 H       1  ZINC000652498551    0.1400
     39 H39        -7.4367    2.0978   59.3781 H       1  ZINC000652498551    0.1500
     40 H40        -6.1255    0.4507   58.5410 H       1  ZINC000652498551    0.1100
     41 H41        -7.0788   -0.6837   59.5273 H       1  ZINC000652498551    0.0900
     42 H42        -6.4508   -2.6867   58.4294 H       1  ZINC000652498551    0.1500
     43 H43        -9.8619   -5.2200   58.0260 H       1  ZINC000652498551    0.1500
     44 H44       -10.1324   -1.1018   56.9481 H       1  ZINC000652498551    0.1500
     45 H45       -10.6237    1.0309   59.4362 H       1  ZINC000652498551    0.1100
     46 H46       -10.0744    2.4637   60.3371 H       1  ZINC000652498551    0.1700
@<TRIPOS>BOND
     1     1     2    1
     2     1    26    1
     3     1    27    1
     4     1    28    1
     5     2     3    1
     6     2     4    1
     7     2     7    1
     8     3    29    1
     9     3    30    1
    10     3    31    1
    11     4     5   ar
    12     4     6   ar
    13     7     8    1
    14     7    25    1
    15     7     9    1
    16     9    10    1
    17     9    32    1
    18     9    33    1
    19    10    11    1
    20    10    34    1
    21    10    35    1
    22    11    12    1
    23    11    36    1
    24    11    37    1
    25    12    13    1
    26    12    14    1
    27    12    25    1
    28    14    15    1
    29    14    38    1
    30    14    39    1
    31    15    16    1
    32    15    40    1
    33    15    41    1
    34    16    17    1
    35    17    24   ar
    36    17    18   ar
    37    18    19   ar
    38    18    42    1
    39    19    20    1
    40    19    21   ar
    41    21    22   ar
    42    21    43    1
    43    22    23    1
    44    22    24   ar
    45    24    44    1
    46    25    45    1
    47    25    46    1
@<TRIPOS>SUBSTRUCTURE
     1 ZINC000652498551        1 TEMP              0 ****  ****    0 ROOT


##########                                Name:    ZINC000481838178
##########                DOCK_Rotatable_Bonds:                   6
##########                         Heavy_Atoms:                  29
##########                    Molecular_Weight:             408.524
##########                DOCK_Rotatable_Bonds:                   6
##########                       Formal_Charge:         -0.00999962
##########                     HBond_Acceptors:                   7
##########                        HBond_Donors:                   0
##########                         Heavy_Atoms:                  29
##########                          Grid_Score:          -29.693581
##########                     Grid_vdw_energy:          -29.687872
##########                      Grid_es_energy:           -0.005708
##########           Internal_energy_repulsive:            5.840322

@<TRIPOS>MOLECULE
ZINC000481838178
 53 57 1 0 0
SMALL
USER_CHARGES


@<TRIPOS>ATOM
      1 O1         -5.7285    2.5171   49.2208 O.2     1  ZINC000481838178   -0.5200
      2 C2         -4.7300    2.3768   49.8950 C.2     1  ZINC000481838178    0.5500
      3 C3         -4.8310    2.3696   51.3986 C.3     1  ZINC000481838178   -0.1500
      4 S4         -6.5501    2.6523   51.8892 S.3     1  ZINC000481838178    0.1000
      5 C5         -6.4721    2.1555   53.5778 C.2     1  ZINC000481838178    0.1600
      6 N6         -5.4685    2.3531   54.4027 N.2     1  ZINC000481838178   -0.2800
      7 N7         -5.7415    1.8640   55.5591 N.2     1  ZINC000481838178   -0.2500
      8 C8         -6.9397    1.3216   55.5469 C.2     1  ZINC000481838178    0.2700
      9 C9         -7.6121    0.6594   56.6750 C.2     1  ZINC000481838178    0.0300
     10 C10        -8.4272   -0.4299   56.5933 C.2     1  ZINC000481838178   -0.1300
     11 C11        -8.8461   -0.7219   57.9057 C.2     1  ZINC000481838178   -0.2100
     12 C12        -8.2743    0.1909   58.7161 C.2     1  ZINC000481838178   -0.0100
     13 O13        -7.5250    1.0202   57.9706 O.3     1  ZINC000481838178   -0.1700
     14 N14        -7.4483    1.4970   54.2766 N.pl3   1  ZINC000481838178   -0.4100
     15 C15        -8.6985    1.0806   53.7989 C.ar    1  ZINC000481838178    0.1000
     16 C16        -9.8614    1.5309   54.4090 C.ar    1  ZINC000481838178   -0.0800
     17 C17       -11.0920    1.1186   53.9361 C.ar    1  ZINC000481838178   -0.1100
     18 C18       -11.1663    0.2584   52.8560 C.ar    1  ZINC000481838178   -0.1000
     19 C19       -10.0097   -0.1918   52.2462 C.ar    1  ZINC000481838178   -0.1100
     20 C20        -8.7764    0.2214   52.7110 C.ar    1  ZINC000481838178   -0.0900
     21 N21        -3.5310    2.2216   49.2994 N.am    1  ZINC000481838178   -0.6200
     22 C22        -3.2804    2.2144   47.8332 C.3     1  ZINC000481838178    0.1000
     23 C23        -1.8174    2.6607   47.7270 C.3     1  ZINC000481838178   -0.1100
     24 H24        -1.7205    3.7301   47.9148 H       1  ZINC000481838178    0.0900
     25 C25        -1.0862    2.2650   46.4580 C.3     1  ZINC000481838178   -0.1100
     26 C26         0.3769    2.7092   46.6224 C.3     1  ZINC000481838178   -0.1200
     27 C27         1.0197    2.0843   47.8564 C.3     1  ZINC000481838178   -0.1200
     28 C28         0.1940    2.3576   49.1251 C.3     1  ZINC000481838178   -0.1000
     29 C29        -1.2009    1.8261   48.8896 C.3     1  ZINC000481838178   -0.1100
     30 H30        -1.1553    0.7787   48.5910 H       1  ZINC000481838178    0.0900
     31 C31        -2.2327    2.0350   49.9938 C.3     1  ZINC000481838178    0.1200
     32 H32        -4.4983    1.4043   51.7805 H       1  ZINC000481838178    0.1300
     33 H33        -4.2015    3.1592   51.8088 H       1  ZINC000481838178    0.1300
     34 H34        -8.6995   -0.9652   55.6957 H       1  ZINC000481838178    0.1600
     35 H35        -9.5019   -1.5255   58.2062 H       1  ZINC000481838178    0.1600
     36 H36        -8.3949    0.2440   59.7880 H       1  ZINC000481838178    0.2100
     37 H37        -9.8040    2.2025   55.2528 H       1  ZINC000481838178    0.1300
     38 H38       -11.9970    1.4683   54.4104 H       1  ZINC000481838178    0.1400
     39 H39       -12.1295   -0.0629   52.4881 H       1  ZINC000481838178    0.1300
     40 H40       -10.0709   -0.8640   51.4031 H       1  ZINC000481838178    0.1400
     41 H41        -7.8735   -0.1305   52.2344 H       1  ZINC000481838178    0.1300
     42 H42        -3.4073    1.2113   47.4259 H       1  ZINC000481838178    0.0800
     43 H43        -3.9366    2.9224   47.3270 H       1  ZINC000481838178    0.0800
     44 H44        -1.1336    1.1844   46.3234 H       1  ZINC000481838178    0.0700
     45 H45        -1.5328    2.7672   45.5998 H       1  ZINC000481838178    0.0700
     46 H46         0.9405    2.4112   45.7382 H       1  ZINC000481838178    0.0600
     47 H47         0.4107    3.7947   46.7150 H       1  ZINC000481838178    0.0600
     48 H48         1.0997    1.0072   47.7091 H       1  ZINC000481838178    0.0600
     49 H49         2.0192    2.4996   47.9859 H       1  ZINC000481838178    0.0700
     50 H50         0.6453    1.8512   49.9784 H       1  ZINC000481838178    0.0700
     51 H51         0.1444    3.4303   49.3121 H       1  ZINC000481838178    0.0700
     52 H52        -1.9787    2.9149   50.5847 H       1  ZINC000481838178    0.0700
     53 H53        -2.2839    1.1535   50.6329 H       1  ZINC000481838178    0.0700
@<TRIPOS>BOND
     1     1     2    2
     2     2     3    1
     3     2    21   am
     4     3     4    1
     5     3    32    1
     6     3    33    1
     7     4     5    1
     8     5    14    1
     9     5     6    2
    10     6     7    1
    11     7     8    2
    12     8     9    1
    13     8    14    1
    14     9    13    1
    15     9    10    2
    16    10    11    1
    17    10    34    1
    18    11    12    2
    19    11    35    1
    20    12    13    1
    21    12    36    1
    22    14    15    1
    23    15    20   ar
    24    15    16   ar
    25    16    17   ar
    26    16    37    1
    27    17    18   ar
    28    17    38    1
    29    18    19   ar
    30    18    39    1
    31    19    20   ar
    32    19    40    1
    33    20    41    1
    34    21    31    1
    35    21    22    1
    36    22    23    1
    37    22    42    1
    38    22    43    1
    39    23    24    1
    40    23    29    1
    41    23    25    1
    42    25    26    1
    43    25    44    1
    44    25    45    1
    45    26    27    1
    46    26    46    1
    47    26    47    1
    48    27    28    1
    49    27    48    1
    50    27    49    1
    51    28    29    1
    52    28    50    1
    53    28    51    1
    54    29    30    1
    55    29    31    1
    56    31    52    1
    57    31    53    1
@<TRIPOS>SUBSTRUCTURE
     1 ZINC000481838178        1 TEMP              0 ****  ****    0 ROOT


##########                                Name:    ZINC001011267435
##########                DOCK_Rotatable_Bonds:                   7
##########                         Heavy_Atoms:                  24
##########                    Molecular_Weight:             331.458
##########                DOCK_Rotatable_Bonds:                   7
##########                       Formal_Charge:        -4.47035e-08
##########                     HBond_Acceptors:                   5
##########                        HBond_Donors:                   0
##########                         Heavy_Atoms:                  24
##########                          Grid_Score:          -29.689346
##########                     Grid_vdw_energy:          -28.600882
##########                      Grid_es_energy:           -1.088464
##########           Internal_energy_repulsive:           41.546509

@<TRIPOS>MOLECULE
ZINC001011267435
 53 54 1 0 0
SMALL
USER_CHARGES


@<TRIPOS>ATOM
      1 C1         -1.2949   -0.9977   47.8192 C.3     1  ZINC001011267435   -0.1500
      2 C2         -0.2349    0.0994   47.7016 C.3     1  ZINC001011267435   -0.1200
      3 C3         -0.4094    1.1016   48.8443 C.3     1  ZINC001011267435   -0.0700
      4 C4         -1.7814    1.7199   48.7653 C.ar    1  ZINC001011267435    0.1300
      5 C5         -2.4428    2.0614   49.9288 C.ar    1  ZINC001011267435   -0.1200
      6 C6         -3.7155    2.6344   49.8421 C.ar    1  ZINC001011267435   -0.0800
      7 C7         -4.4626    3.0175   51.0626 C.2     1  ZINC001011267435    0.5600
      8 O8         -4.2381    4.0823   51.6034 O.2     1  ZINC001011267435   -0.5200
      9 N9         -5.3915    2.1850   51.5732 N.am    1  ZINC001011267435   -0.6100
     10 C10        -6.1446    2.5545   52.7799 C.3     1  ZINC001011267435    0.0700
     11 C11        -7.6437    2.4758   52.4652 C.3     1  ZINC001011267435    0.1000
     12 N12        -7.9218    1.1824   51.8251 N.am    1  ZINC001011267435   -0.6200
     13 C13        -8.8512    0.3503   52.3352 C.2     1  ZINC001011267435    0.5300
     14 O14        -9.0719   -0.7145   51.7981 O.2     1  ZINC001011267435   -0.5300
     15 C15        -9.6161    0.7428   53.5728 C.3     1  ZINC001011267435   -0.1100
     16 H16        -9.8273    1.8118   53.5457 H       1  ZINC001011267435    0.0900
     17 C17        -8.7804    0.4194   54.8130 C.3     1  ZINC001011267435   -0.1500
     18 C18       -10.9321   -0.0358   53.6275 C.3     1  ZINC001011267435   -0.0800
     19 C19       -11.7121    0.3681   54.8802 C.3     1  ZINC001011267435   -0.1500
     20 C20       -11.7647    0.2821   52.3838 C.3     1  ZINC001011267435   -0.1500
     21 C21        -7.1686    0.8129   50.6184 C.3     1  ZINC001011267435    0.0900
     22 C22        -5.6736    0.8941   50.9298 C.3     1  ZINC001011267435    0.1000
     23 C23        -4.2628    2.8362   48.5717 C.ar    1  ZINC001011267435   -0.1600
     24 C24        -3.5309    2.4646   47.4602 C.ar    1  ZINC001011267435    0.1100
     25 N25        -2.3319    1.9323   47.5865 N.ar    1  ZINC001011267435   -0.4600
     26 H26        -1.1815   -1.5116   48.7738 H       1  ZINC001011267435    0.0600
     27 H27        -2.2876   -0.5512   47.7625 H       1  ZINC001011267435    0.0500
     28 H28        -1.1705   -1.7117   47.0051 H       1  ZINC001011267435    0.0600
     29 H29         0.7579   -0.3470   47.7583 H       1  ZINC001011267435    0.0700
     30 H30        -0.3482    0.6133   46.7471 H       1  ZINC001011267435    0.0600
     31 H31        -0.2970    0.5875   49.7989 H       1  ZINC001011267435    0.0800
     32 H32         0.3464    1.8826   48.7612 H       1  ZINC001011267435    0.0900
     33 H33        -1.9840    1.8883   50.8911 H       1  ZINC001011267435    0.1400
     34 H34        -5.9036    1.8634   53.5876 H       1  ZINC001011267435    0.0800
     35 H35        -5.8858    3.5712   53.0755 H       1  ZINC001011267435    0.1100
     36 H36        -8.2162    2.5572   53.3892 H       1  ZINC001011267435    0.1100
     37 H37        -7.9186    3.2852   51.7890 H       1  ZINC001011267435    0.0700
     38 H38        -9.3653    0.6258   55.7093 H       1  ZINC001011267435    0.0800
     39 H39        -8.4991   -0.6336   54.7971 H       1  ZINC001011267435    0.0600
     40 H40        -7.8813    1.0355   54.8160 H       1  ZINC001011267435    0.0600
     41 H41       -10.7208   -1.1046   53.6599 H       1  ZINC001011267435    0.0800
     42 H42       -12.6496   -0.1866   54.9191 H       1  ZINC001011267435    0.0600
     43 H43       -11.1189    0.1417   55.7662 H       1  ZINC001011267435    0.0600
     44 H44       -11.9233    1.4370   54.8478 H       1  ZINC001011267435    0.0600
     45 H45       -11.2090   -0.0057   51.4913 H       1  ZINC001011267435    0.0600
     46 H46       -12.7022   -0.2726   52.4227 H       1  ZINC001011267435    0.0600
     47 H47       -11.9759    1.3509   52.3514 H       1  ZINC001011267435    0.0500
     48 H48        -7.4274   -0.2038   50.3227 H       1  ZINC001011267435    0.1000
     49 H49        -7.4097    1.5040   49.8107 H       1  ZINC001011267435    0.0800
     50 H50        -5.1023    0.8124   50.0051 H       1  ZINC001011267435    0.1100
     51 H51        -5.3964    0.0858   51.6065 H       1  ZINC001011267435    0.0800
     52 H52        -5.2432    3.2756   48.4607 H       1  ZINC001011267435    0.1500
     53 H53        -3.9454    2.6162   46.4744 H       1  ZINC001011267435    0.1700
@<TRIPOS>BOND
     1     1     2    1
     2     1    26    1
     3     1    27    1
     4     1    28    1
     5     2     3    1
     6     2    29    1
     7     2    30    1
     8     3     4    1
     9     3    31    1
    10     3    32    1
    11     4    25   ar
    12     4     5   ar
    13     5     6   ar
    14     5    33    1
    15     6     7    1
    16     6    23   ar
    17     7     8    2
    18     7     9   am
    19     9    22    1
    20     9    10    1
    21    10    11    1
    22    10    34    1
    23    10    35    1
    24    11    12    1
    25    11    36    1
    26    11    37    1
    27    12    13   am
    28    12    21    1
    29    13    14    2
    30    13    15    1
    31    15    16    1
    32    15    17    1
    33    15    18    1
    34    17    38    1
    35    17    39    1
    36    17    40    1
    37    18    19    1
    38    18    20    1
    39    18    41    1
    40    19    42    1
    41    19    43    1
    42    19    44    1
    43    20    45    1
    44    20    46    1
    45    20    47    1
    46    21    22    1
    47    21    48    1
    48    21    49    1
    49    22    50    1
    50    22    51    1
    51    23    24   ar
    52    23    52    1
    53    24    25   ar
    54    24    53    1
@<TRIPOS>SUBSTRUCTURE
     1 ZINC001011267435        1 TEMP              0 ****  ****    0 ROOT


##########                                Name:    ZINC000846412382
##########                DOCK_Rotatable_Bonds:                   6
##########                         Heavy_Atoms:                  26
##########                    Molecular_Weight:             370.475
##########                DOCK_Rotatable_Bonds:                   6
##########                       Formal_Charge:               -0.03
##########                     HBond_Acceptors:                   7
##########                        HBond_Donors:                   4
##########                         Heavy_Atoms:                  26
##########                          Grid_Score:          -29.662605
##########                     Grid_vdw_energy:          -28.608004
##########                      Grid_es_energy:           -1.054602
##########           Internal_energy_repulsive:           24.474548

@<TRIPOS>MOLECULE
ZINC000846412382
 48 50 1 0 0
SMALL
USER_CHARGES


@<TRIPOS>ATOM
      1 C1         -7.1247    1.6247   56.3461 C.3     1  ZINC000846412382   -0.1400
      2 C2         -8.1198    0.6255   55.8145 C.2     1  ZINC000846412382    0.0300
      3 C3         -8.7414    0.7917   54.6403 C.2     1  ZINC000846412382   -0.2700
      4 C4         -8.5401    1.9365   53.7435 C.2     1  ZINC000846412382    0.6000
      5 O5         -9.2341    2.9292   53.8590 O.2     1  ZINC000846412382   -0.5200
      6 N6         -7.5866    1.8877   52.7923 N.am    1  ZINC000846412382   -0.7100
      7 C7         -7.3868    3.0295   51.8962 C.3     1  ZINC000846412382    0.1200
      8 H8         -8.3248    3.5740   51.7868 H       1  ZINC000846412382    0.1000
      9 C9         -6.3230    3.9590   52.4839 C.3     1  ZINC000846412382   -0.1700
     10 C10        -6.9255    2.5281   50.5264 C.3     1  ZINC000846412382    0.1700
     11 C11        -7.5986    3.3536   49.4279 C.3     1  ZINC000846412382   -0.1400
     12 O12        -7.2847    1.1531   50.3765 O.3     1  ZINC000846412382   -0.5500
     13 C13        -5.4293    2.6713   50.4167 C.ar    1  ZINC000846412382   -0.1200
     14 C14        -4.8805    3.8475   49.9412 C.ar    1  ZINC000846412382   -0.1100
     15 C15        -3.5081    3.9789   49.8406 C.ar    1  ZINC000846412382   -0.1200
     16 C16        -2.6845    2.9342   50.2162 C.ar    1  ZINC000846412382   -0.1200
     17 C17        -3.2333    1.7582   50.6926 C.ar    1  ZINC000846412382   -0.1200
     18 C18        -4.6055    1.6285   50.7971 C.ar    1  ZINC000846412382   -0.1000
     19 S19        -9.8298   -0.5480   54.3208 S.3     1  ZINC000846412382    0.2000
     20 C20        -9.3989   -1.3244   55.8385 C.ar    1  ZINC000846412382    0.1400
     21 N21        -9.8123   -2.4694   56.3934 N.ar    1  ZINC000846412382   -0.5300
     22 C22        -9.3491   -2.8649   57.5570 C.ar    1  ZINC000846412382    0.3900
     23 C23        -9.8484   -4.1634   58.1363 C.3     1  ZINC000846412382   -0.0900
     24 N24        -8.4602   -2.1631   58.2361 N.ar    1  ZINC000846412382   -0.5800
     25 C25        -7.9889   -1.0159   57.7715 C.ar    1  ZINC000846412382    0.5100
     26 N26        -7.0601   -0.2953   58.4945 N.pl3   1  ZINC000846412382   -0.8300
     27 C27        -8.4516   -0.5406   56.5119 C.ar    1  ZINC000846412382   -0.2500
     28 H28        -6.1160    1.3111   56.0772 H       1  ZINC000846412382    0.0800
     29 H29        -7.3278    2.6046   55.9143 H       1  ZINC000846412382    0.1100
     30 H30        -7.2107    1.6809   57.4313 H       1  ZINC000846412382    0.0700
     31 H31        -7.0325    1.0968   52.7009 H       1  ZINC000846412382    0.4000
     32 H32        -5.3851    3.4145   52.5932 H       1  ZINC000846412382    0.0600
     33 H33        -6.1745    4.8085   51.8172 H       1  ZINC000846412382    0.0800
     34 H34        -6.6517    4.3162   53.4598 H       1  ZINC000846412382    0.0700
     35 H35        -7.3246    4.4024   49.5421 H       1  ZINC000846412382    0.0700
     36 H36        -7.2700    2.9964   48.4520 H       1  ZINC000846412382    0.0700
     37 H37        -8.6807    3.2501   49.5072 H       1  ZINC000846412382    0.0700
     38 H38        -7.0700    0.7828   49.5093 H       1  ZINC000846412382    0.3800
     39 H39        -5.5241    4.6637   49.6478 H       1  ZINC000846412382    0.1300
     40 H40        -3.0794    4.8975   49.4684 H       1  ZINC000846412382    0.1200
     41 H41        -1.6123    3.0365   50.1369 H       1  ZINC000846412382    0.1200
     42 H42        -2.5897    0.9419   50.9857 H       1  ZINC000846412382    0.1200
     43 H43        -5.0342    0.7097   51.1693 H       1  ZINC000846412382    0.1300
     44 H44        -9.2086   -4.9803   57.8022 H       1  ZINC000846412382    0.0900
     45 H45        -9.8276   -4.1075   59.2247 H       1  ZINC000846412382    0.0900
     46 H46       -10.8701   -4.3417   57.8012 H       1  ZINC000846412382    0.0900
     47 H47        -6.9797   -0.4304   59.4517 H       1  ZINC000846412382    0.4100
     48 H48        -6.4876    0.3461   58.0454 H       1  ZINC000846412382    0.4200
@<TRIPOS>BOND
     1     1     2    1
     2     1    28    1
     3     1    29    1
     4     1    30    1
     5     2    27    1
     6     2     3    2
     7     3     4    1
     8     3    19    1
     9     4     5    2
    10     4     6   am
    11     6     7    1
    12     6    31    1
    13     7     8    1
    14     7     9    1
    15     7    10    1
    16     9    32    1
    17     9    33    1
    18     9    34    1
    19    10    11    1
    20    10    12    1
    21    10    13    1
    22    11    35    1
    23    11    36    1
    24    11    37    1
    25    12    38    1
    26    13    18   ar
    27    13    14   ar
    28    14    15   ar
    29    14    39    1
    30    15    16   ar
    31    15    40    1
    32    16    17   ar
    33    16    41    1
    34    17    18   ar
    35    17    42    1
    36    18    43    1
    37    19    20    1
    38    20    27   ar
    39    20    21   ar
    40    21    22   ar
    41    22    23    1
    42    22    24   ar
    43    23    44    1
    44    23    45    1
    45    23    46    1
    46    24    25   ar
    47    25    26    1
    48    25    27   ar
    49    26    47    1
    50    26    48    1
@<TRIPOS>SUBSTRUCTURE
     1 ZINC000846412382        1 TEMP              0 ****  ****    0 ROOT


##########                                Name:    ZINC000279331220
##########                DOCK_Rotatable_Bonds:                   9
##########                         Heavy_Atoms:                  24
##########                    Molecular_Weight:             328.411
##########                DOCK_Rotatable_Bonds:                   9
##########                       Formal_Charge:          -0.0100001
##########                     HBond_Acceptors:                   5
##########                        HBond_Donors:                   0
##########                         Heavy_Atoms:                  24
##########                          Grid_Score:          -29.659966
##########                     Grid_vdw_energy:          -29.224735
##########                      Grid_es_energy:           -0.435230
##########           Internal_energy_repulsive:           17.972107

@<TRIPOS>MOLECULE
ZINC000279331220
 48 49 1 0 0
SMALL
USER_CHARGES


@<TRIPOS>ATOM
      1 C1        -10.4505    0.7439   52.6873 C.3     1  ZINC000279331220   -0.1500
      2 C2         -9.2810    1.2599   53.5279 C.3     1  ZINC000279331220    0.0500
      3 O3         -8.1181    1.3762   52.7056 O.3     1  ZINC000279331220   -0.3000
      4 C4         -6.9582    1.7275   53.3226 C.ar    1  ZINC000279331220    0.1000
      5 C5         -6.9772    2.1749   54.6335 C.ar    1  ZINC000279331220   -0.1700
      6 C6         -5.7968    2.5312   55.2595 C.ar    1  ZINC000279331220   -0.1200
      7 C7         -4.5965    2.4426   54.5801 C.ar    1  ZINC000279331220   -0.1200
      8 C8         -4.5706    1.9972   53.2712 C.ar    1  ZINC000279331220   -0.1700
      9 C9         -5.7486    1.6327   52.6402 C.ar    1  ZINC000279331220    0.1000
     10 O10        -5.7249    1.1945   51.3531 O.3     1  ZINC000279331220   -0.3000
     11 C11        -6.2065    2.0939   50.3525 C.3     1  ZINC000279331220    0.0600
     12 C12        -5.1667    3.1893   50.1082 C.3     1  ZINC000279331220   -0.1100
     13 C13        -4.0806    2.6614   49.1689 C.3     1  ZINC000279331220   -0.1300
     14 C14        -2.8624    3.5433   49.2635 C.2     1  ZINC000279331220    0.5200
     15 O15        -2.8490    4.4781   50.0360 O.2     1  ZINC000279331220   -0.5200
     16 N16        -1.7876    3.2933   48.4898 N.am    1  ZINC000279331220   -0.5700
     17 C17        -0.6026    4.1497   48.5832 C.3     1  ZINC000279331220    0.0800
     18 C18        -1.8033    2.2197   47.6006 C.ar    1  ZINC000279331220    0.3400
     19 N19        -2.2762    2.3894   46.3762 N.ar    1  ZINC000279331220   -0.4800
     20 C20        -2.3092    1.4002   45.5038 C.ar    1  ZINC000279331220    0.1100
     21 C21        -1.8476    0.1433   45.8408 C.ar    1  ZINC000279331220   -0.1600
     22 C22        -1.3434   -0.0763   47.1157 C.ar    1  ZINC000279331220   -0.0700
     23 C23        -1.3168    0.9821   48.0064 C.ar    1  ZINC000279331220   -0.1200
     24 C24        -0.7784    0.7931   49.4012 C.3     1  ZINC000279331220   -0.1100
     25 H25       -11.3375    0.6553   53.3145 H       1  ZINC000279331220    0.0800
     26 H26       -10.6490    1.4419   51.8738 H       1  ZINC000279331220    0.0700
     27 H27       -10.1982   -0.2329   52.2745 H       1  ZINC000279331220    0.0700
     28 H28        -9.5332    2.2367   53.9407 H       1  ZINC000279331220    0.0600
     29 H29        -9.0824    0.5620   54.3414 H       1  ZINC000279331220    0.0600
     30 H30        -7.9138    2.2457   55.1664 H       1  ZINC000279331220    0.1300
     31 H31        -5.8129    2.8799   56.2816 H       1  ZINC000279331220    0.1300
     32 H32        -3.6767    2.7222   55.0725 H       1  ZINC000279331220    0.1300
     33 H33        -3.6313    1.9295   52.7424 H       1  ZINC000279331220    0.1300
     34 H34        -6.3823    1.5467   49.4263 H       1  ZINC000279331220    0.0600
     35 H35        -7.1390    2.5467   50.6895 H       1  ZINC000279331220    0.0600
     36 H36        -5.6502    4.0546   49.6546 H       1  ZINC000279331220    0.0800
     37 H37        -4.7163    3.4808   51.0570 H       1  ZINC000279331220    0.0800
     38 H38        -3.8156    1.6437   49.4555 H       1  ZINC000279331220    0.1000
     39 H39        -4.4531    2.6650   48.1444 H       1  ZINC000279331220    0.1000
     40 H40         0.0312    3.8051   49.4003 H       1  ZINC000279331220    0.0700
     41 H41        -0.0459    4.1032   47.6472 H       1  ZINC000279331220    0.0800
     42 H42        -0.9114    5.1779   48.7716 H       1  ZINC000279331220    0.0800
     43 H43        -2.7027    1.5756   44.5135 H       1  ZINC000279331220    0.1600
     44 H44        -1.8788   -0.6607   45.1204 H       1  ZINC000279331220    0.1400
     45 H45        -0.9762   -1.0502   47.4041 H       1  ZINC000279331220    0.1400
     46 H46         0.2710    1.0869   49.4286 H       1  ZINC000279331220    0.0800
     47 H47        -1.3468    1.4105   50.0968 H       1  ZINC000279331220    0.0700
     48 H48        -0.8698   -0.2548   49.6871 H       1  ZINC000279331220    0.0700
@<TRIPOS>BOND
     1     1     2    1
     2     1    25    1
     3     1    26    1
     4     1    27    1
     5     2     3    1
     6     2    28    1
     7     2    29    1
     8     3     4    1
     9     4     9   ar
    10     4     5   ar
    11     5     6   ar
    12     5    30    1
    13     6     7   ar
    14     6    31    1
    15     7     8   ar
    16     7    32    1
    17     8     9   ar
    18     8    33    1
    19     9    10    1
    20    10    11    1
    21    11    12    1
    22    11    34    1
    23    11    35    1
    24    12    13    1
    25    12    36    1
    26    12    37    1
    27    13    14    1
    28    13    38    1
    29    13    39    1
    30    14    15    2
    31    14    16   am
    32    16    17    1
    33    16    18    1
    34    17    40    1
    35    17    41    1
    36    17    42    1
    37    18    23   ar
    38    18    19   ar
    39    19    20   ar
    40    20    21   ar
    41    20    43    1
    42    21    22   ar
    43    21    44    1
    44    22    23   ar
    45    22    45    1
    46    23    24    1
    47    24    46    1
    48    24    47    1
    49    24    48    1
@<TRIPOS>SUBSTRUCTURE
     1 ZINC000279331220        1 TEMP              0 ****  ****    0 ROOT


##########                                Name:    ZINC000469459940
##########                DOCK_Rotatable_Bonds:                   7
##########                         Heavy_Atoms:                  24
##########                    Molecular_Weight:             414.295
##########                DOCK_Rotatable_Bonds:                   7
##########                       Formal_Charge:          -0.0200002
##########                     HBond_Acceptors:                   6
##########                        HBond_Donors:                   1
##########                         Heavy_Atoms:                  24
##########                          Grid_Score:          -29.631807
##########                     Grid_vdw_energy:          -29.823109
##########                      Grid_es_energy:            0.191301
##########           Internal_energy_repulsive:            6.409320

@<TRIPOS>MOLECULE
ZINC000469459940
 41 42 1 0 0
SMALL
USER_CHARGES


@<TRIPOS>ATOM
      1 C1        -10.6685   -1.1651   60.4655 C.3     1  ZINC000469459940   -0.1600
      2 C2        -12.1102   -1.0942   59.9585 C.3     1  ZINC000469459940   -0.1200
      3 C3        -12.6677   -2.5108   59.8065 C.3     1  ZINC000469459940   -0.1200
      4 C4        -14.0281   -2.4515   59.1089 C.3     1  ZINC000469459940   -0.6000
      5 S5        -13.9475   -3.3708   57.5472 S.o2    1  ZINC000469459940    2.4900
      6 O6        -13.3598   -4.6484   57.7504 O.2     1  ZINC000469459940   -0.9300
      7 O7        -15.1616   -3.2298   56.8223 O.2     1  ZINC000469459940   -0.9300
      8 C8        -12.7612   -2.4952   56.5823 C.ar    1  ZINC000469459940   -0.6400
      9 C9        -11.4851   -3.0074   56.4290 C.ar    1  ZINC000469459940   -0.0300
     10 C10       -10.5514   -2.3268   55.6752 C.ar    1  ZINC000469459940   -0.0800
     11 C11       -10.8967   -1.1191   55.0663 C.ar    1  ZINC000469459940   -0.0900
     12 C12        -9.9016   -0.3846   54.2567 C.2     1  ZINC000469459940    0.5600
     13 O13        -8.7823   -0.1978   54.6925 O.2     1  ZINC000469459940   -0.5000
     14 N14       -10.2354    0.0781   53.0357 N.am    1  ZINC000469459940   -0.6700
     15 C15        -9.2937    0.7731   52.2697 C.ar    1  ZINC000469459940    0.1900
     16 C16        -8.3027    0.0787   51.5882 C.ar    1  ZINC000469459940   -0.1500
     17 C17        -7.3733    0.7664   50.8322 C.ar    1  ZINC000469459940   -0.0400
     18 C18        -7.4280    2.1461   50.7531 C.ar    1  ZINC000469459940   -0.1500
     19 Br19       -6.1537    3.0835   49.7169 Br      1  ZINC000469459940   -0.0200
     20 C20        -8.4155    2.8427   51.4318 C.ar    1  ZINC000469459940    0.1500
     21 F21        -8.4669    4.1904   51.3531 F       1  ZINC000469459940   -0.1200
     22 C22        -9.3518    2.1580   52.1850 C.ar    1  ZINC000469459940   -0.1500
     23 C23       -12.1861   -0.6082   55.2247 C.ar    1  ZINC000469459940   -0.1100
     24 C24       -13.1118   -1.3015   55.9769 C.ar    1  ZINC000469459940   -0.0300
     25 H25       -10.6475   -1.6695   61.4317 H       1  ZINC000469459940    0.0600
     26 H26       -10.0595   -1.7207   59.7524 H       1  ZINC000469459940    0.0600
     27 H27       -10.2713   -0.1559   60.5739 H       1  ZINC000469459940    0.0600
     28 H28       -12.7193   -0.5386   60.6716 H       1  ZINC000469459940    0.0700
     29 H29       -12.1312   -0.5899   58.9924 H       1  ZINC000469459940    0.0700
     30 H30       -11.9796   -3.1101   59.2103 H       1  ZINC000469459940    0.0800
     31 H31       -12.7838   -2.9633   60.7913 H       1  ZINC000469459940    0.0800
     32 H32       -14.7866   -2.8958   59.7533 H       1  ZINC000469459940    0.1400
     33 H33       -14.2873   -1.4124   58.9058 H       1  ZINC000469459940    0.1400
     34 H34       -11.2192   -3.9418   56.9006 H       1  ZINC000469459940    0.1500
     35 H35        -9.5554   -2.7272   55.5568 H       1  ZINC000469459940    0.1500
     36 H36       -11.1286   -0.0709   52.6881 H       1  ZINC000469459940    0.4200
     37 H37        -8.2584   -0.9985   51.6496 H       1  ZINC000469459940    0.1500
     38 H38        -6.6028    0.2260   50.3024 H       1  ZINC000469459940    0.1500
     39 H39       -10.1216    2.7003   52.7139 H       1  ZINC000469459940    0.1600
     40 H40       -12.4595    0.3258   54.7565 H       1  ZINC000469459940    0.1400
     41 H41       -14.1097   -0.9074   56.1003 H       1  ZINC000469459940    0.1500
@<TRIPOS>BOND
     1     1     2    1
     2     1    25    1
     3     1    26    1
     4     1    27    1
     5     2     3    1
     6     2    28    1
     7     2    29    1
     8     3     4    1
     9     3    30    1
    10     3    31    1
    11     4     5    1
    12     4    32    1
    13     4    33    1
    14     5     6    2
    15     5     7    2
    16     5     8    1
    17     8    24   ar
    18     8     9   ar
    19     9    10   ar
    20     9    34    1
    21    10    11   ar
    22    10    35    1
    23    11    12    1
    24    11    23   ar
    25    12    13    2
    26    12    14   am
    27    14    15    1
    28    14    36    1
    29    15    22   ar
    30    15    16   ar
    31    16    17   ar
    32    16    37    1
    33    17    18   ar
    34    17    38    1
    35    18    19    1
    36    18    20   ar
    37    20    21    1
    38    20    22   ar
    39    22    39    1
    40    23    24   ar
    41    23    40    1
    42    24    41    1
@<TRIPOS>SUBSTRUCTURE
     1 ZINC000469459940        1 TEMP              0 ****  ****    0 ROOT


##########                                Name:    ZINC000484424341
##########                DOCK_Rotatable_Bonds:                   7
##########                         Heavy_Atoms:                  26
##########                    Molecular_Weight:             359.425
##########                DOCK_Rotatable_Bonds:                   7
##########                       Formal_Charge:          -0.0100009
##########                     HBond_Acceptors:                   7
##########                        HBond_Donors:                   1
##########                         Heavy_Atoms:                  26
##########                          Grid_Score:          -29.628162
##########                     Grid_vdw_energy:          -27.460333
##########                      Grid_es_energy:           -2.167830
##########           Internal_energy_repulsive:           14.008108

@<TRIPOS>MOLECULE
ZINC000484424341
 51 53 1 0 0
SMALL
USER_CHARGES


@<TRIPOS>ATOM
      1 C1         -6.8621   -2.0565   58.5810 C.3     1  ZINC000484424341    0.0300
      2 O2         -7.7391   -1.1493   57.9103 O.3     1  ZINC000484424341   -0.3800
      3 C3         -7.8580    0.1235   58.5490 C.3     1  ZINC000484424341    0.1300
      4 H4         -7.3724    0.0874   59.5241 H       1  ZINC000484424341    0.0700
      5 C5         -9.3379    0.4676   58.7287 C.3     1  ZINC000484424341   -0.1700
      6 C6         -7.1972    1.1765   57.6974 C.ar    1  ZINC000484424341   -0.0700
      7 C7         -6.6157    2.2810   58.2923 C.ar    1  ZINC000484424341   -0.1000
      8 C8         -6.0080    3.2499   57.5145 C.ar    1  ZINC000484424341   -0.1000
      9 C9         -5.9801    3.1171   56.1405 C.ar    1  ZINC000484424341   -0.1100
     10 C10        -6.5634    2.0085   55.5392 C.ar    1  ZINC000484424341    0.1400
     11 N11        -6.5366    1.8706   54.1491 N.am    1  ZINC000484424341   -0.6400
     12 C12        -7.3361    2.6365   53.3804 C.2     1  ZINC000484424341    0.5100
     13 O13        -8.0793    3.4459   53.8958 O.2     1  ZINC000484424341   -0.4900
     14 C14        -7.3074    2.4891   51.8945 C.2     1  ZINC000484424341    0.5200
     15 O15        -8.3460    2.3916   51.2741 O.2     1  ZINC000484424341   -0.5200
     16 N16        -6.1281    2.4646   51.2424 N.am    1  ZINC000484424341   -0.5800
     17 C17        -5.9553    2.3254   49.7890 C.3     1  ZINC000484424341    0.1100
     18 C18        -4.4401    2.3771   49.5007 C.3     1  ZINC000484424341   -0.1500
     19 C19        -3.8742    3.1094   50.7459 C.3     1  ZINC000484424341    0.1500
     20 H20        -3.9723    4.1901   50.6418 H       1  ZINC000484424341    0.1100
     21 N21        -2.4793    2.7327   50.9879 N.am    1  ZINC000484424341   -0.6100
     22 C22        -1.8866    1.4506   50.5893 C.3     1  ZINC000484424341    0.1000
     23 C23        -0.3583    1.6688   50.6424 C.3     1  ZINC000484424341   -0.1300
     24 C24        -0.2392    2.8156   51.6728 C.3     1  ZINC000484424341   -0.1600
     25 C25        -1.5764    3.5192   51.5987 C.2     1  ZINC000484424341    0.5200
     26 O26        -1.8027    4.6284   52.0336 O.2     1  ZINC000484424341   -0.5200
     27 C27        -4.7980    2.5793   51.8677 C.3     1  ZINC000484424341    0.0900
     28 C28        -7.1679    1.0345   56.3238 C.ar    1  ZINC000484424341   -0.1300
     29 H29        -7.2291   -2.2367   59.5913 H       1  ZINC000484424341    0.0400
     30 H30        -6.8263   -2.9986   58.0339 H       1  ZINC000484424341    0.0900
     31 H31        -5.8618   -1.6261   58.6291 H       1  ZINC000484424341    0.0400
     32 H32        -9.8235    0.5038   57.7535 H       1  ZINC000484424341    0.0700
     33 H33        -9.8159   -0.2940   59.3446 H       1  ZINC000484424341    0.0600
     34 H34        -9.4286    1.4386   59.2159 H       1  ZINC000484424341    0.0700
     35 H35        -6.6364    2.3876   59.3668 H       1  ZINC000484424341    0.1300
     36 H36        -5.5552    4.1116   57.9824 H       1  ZINC000484424341    0.1300
     37 H37        -5.5057    3.8742   55.5336 H       1  ZINC000484424341    0.1300
     38 H38        -5.9425    1.2238   53.7372 H       1  ZINC000484424341    0.4200
     39 H39        -6.3636    1.3709   49.4570 H       1  ZINC000484424341    0.0800
     40 H40        -6.4585    3.1449   49.2758 H       1  ZINC000484424341    0.0800
     41 H41        -4.0276    1.3711   49.4244 H       1  ZINC000484424341    0.0900
     42 H42        -4.2394    2.9473   48.5936 H       1  ZINC000484424341    0.0900
     43 H43        -2.1802    0.6662   51.2869 H       1  ZINC000484424341    0.0800
     44 H44        -2.1956    1.1909   49.5767 H       1  ZINC000484424341    0.0800
     45 H45         0.1517    0.7726   50.9956 H       1  ZINC000484424341    0.0900
     46 H46         0.0258    1.9768   49.6699 H       1  ZINC000484424341    0.0800
     47 H47        -0.0696    2.4146   52.6720 H       1  ZINC000484424341    0.1100
     48 H48         0.5637    3.4977   51.3932 H       1  ZINC000484424341    0.1000
     49 H49        -4.8257    3.2822   52.7003 H       1  ZINC000484424341    0.0900
     50 H50        -4.4588    1.6007   52.2076 H       1  ZINC000484424341    0.0900
     51 H51        -7.6219    0.1714   55.8598 H       1  ZINC000484424341    0.1300
@<TRIPOS>BOND
     1     1     2    1
     2     1    29    1
     3     1    30    1
     4     1    31    1
     5     2     3    1
     6     3     4    1
     7     3     5    1
     8     3     6    1
     9     5    32    1
    10     5    33    1
    11     5    34    1
    12     6    28   ar
    13     6     7   ar
    14     7     8   ar
    15     7    35    1
    16     8     9   ar
    17     8    36    1
    18     9    10   ar
    19     9    37    1
    20    10    11    1
    21    10    28   ar
    22    11    12   am
    23    11    38    1
    24    12    13    2
    25    12    14    1
    26    14    15    2
    27    14    16   am
    28    16    27    1
    29    16    17    1
    30    17    18    1
    31    17    39    1
    32    17    40    1
    33    18    19    1
    34    18    41    1
    35    18    42    1
    36    19    20    1
    37    19    21    1
    38    19    27    1
    39    21    25   am
    40    21    22    1
    41    22    23    1
    42    22    43    1
    43    22    44    1
    44    23    24    1
    45    23    45    1
    46    23    46    1
    47    24    25    1
    48    24    47    1
    49    24    48    1
    50    25    26    2
    51    27    49    1
    52    27    50    1
    53    28    51    1
@<TRIPOS>SUBSTRUCTURE
     1 ZINC000484424341        1 TEMP              0 ****  ****    0 ROOT


##########                                Name:    ZINC000004598904
##########                DOCK_Rotatable_Bonds:                  13
##########                         Heavy_Atoms:                  30
##########                    Molecular_Weight:             412.442
##########                DOCK_Rotatable_Bonds:                  13
##########                       Formal_Charge:          -0.0300005
##########                     HBond_Acceptors:                   8
##########                        HBond_Donors:                   2
##########                         Heavy_Atoms:                  30
##########                          Grid_Score:          -29.612129
##########                     Grid_vdw_energy:          -27.441626
##########                      Grid_es_energy:           -2.170503
##########           Internal_energy_repulsive:           10.617538

@<TRIPOS>MOLECULE
ZINC000004598904
 54 55 1 0 0
SMALL
USER_CHARGES


@<TRIPOS>ATOM
      1 C1         -7.2049    2.8010   49.7621 C.3     1  ZINC000004598904   -0.1500
      2 C2         -6.0128    1.9275   50.1583 C.3     1  ZINC000004598904    0.0600
      3 O3         -4.7983    2.4758   49.5816 O.3     1  ZINC000004598904   -0.3500
      4 C4         -4.2343    3.5192   50.2211 C.2     1  ZINC000004598904    0.5100
      5 O5         -3.4799    4.2617   49.6245 O.2     1  ZINC000004598904   -0.5100
      6 C6         -4.5326    3.7600   51.6451 C.ar    1  ZINC000004598904   -0.1500
      7 C7         -5.3568    4.8260   52.0179 C.ar    1  ZINC000004598904   -0.0400
      8 C8         -5.6329    5.0476   53.3480 C.ar    1  ZINC000004598904   -0.1400
      9 C9         -5.0929    4.2124   54.3211 C.ar    1  ZINC000004598904    0.1800
     10 N10        -5.3752    4.4397   55.6673 N.am    1  ZINC000004598904   -0.6700
     11 C11        -6.5748    4.0903   56.1727 C.2     1  ZINC000004598904    0.5200
     12 O12        -7.4086    3.5779   55.4564 O.2     1  ZINC000004598904   -0.5100
     13 C13        -6.8799    4.3360   57.6279 C.3     1  ZINC000004598904   -0.1300
     14 C14        -6.4964    3.1007   58.4450 C.3     1  ZINC000004598904   -0.1300
     15 C15        -7.5727    2.0546   58.3092 C.2     1  ZINC000004598904    0.5200
     16 O16        -8.6212    2.1825   58.9052 O.2     1  ZINC000004598904   -0.5100
     17 N17        -7.3702    0.9770   57.5256 N.am    1  ZINC000004598904   -0.6700
     18 C18        -8.3659    0.0093   57.4000 C.ar    1  ZINC000004598904    0.1800
     19 C19        -9.4437    0.2289   56.5476 C.ar    1  ZINC000004598904   -0.1400
     20 C20       -10.4286   -0.7243   56.4211 C.ar    1  ZINC000004598904   -0.0300
     21 C21       -10.3450   -1.9143   57.1501 C.ar    1  ZINC000004598904   -0.1500
     22 C22       -11.3979   -2.9381   57.0169 C.2     1  ZINC000004598904    0.5100
     23 O23       -11.6403   -3.4225   55.9293 O.2     1  ZINC000004598904   -0.5100
     24 O24       -12.0914   -3.3364   58.1014 O.3     1  ZINC000004598904   -0.3600
     25 C25       -13.4940   -3.6568   57.9060 C.3     1  ZINC000004598904    0.0600
     26 C26       -14.2952   -3.2068   59.1293 C.3     1  ZINC000004598904   -0.1500
     27 C27        -9.2605   -2.1318   58.0052 C.ar    1  ZINC000004598904   -0.0400
     28 C28        -8.2767   -1.1763   58.1230 C.ar    1  ZINC000004598904   -0.1600
     29 C29        -4.2722    3.1505   53.9538 C.ar    1  ZINC000004598904   -0.1600
     30 C30        -3.9964    2.9193   52.6252 C.ar    1  ZINC000004598904   -0.0300
     31 H31        -7.2953    2.8213   48.6761 H       1  ZINC000004598904    0.0700
     32 H32        -8.1167    2.3893   50.1950 H       1  ZINC000004598904    0.0800
     33 H33        -7.0519    3.8144   50.1331 H       1  ZINC000004598904    0.0700
     34 H34        -5.9223    1.9071   51.2444 H       1  ZINC000004598904    0.0700
     35 H35        -6.1657    0.9140   49.7874 H       1  ZINC000004598904    0.0700
     36 H36        -5.7759    5.4749   51.2632 H       1  ZINC000004598904    0.1400
     37 H37        -6.2692    5.8712   53.6368 H       1  ZINC000004598904    0.1400
     38 H38        -4.7083    4.8496   56.2402 H       1  ZINC000004598904    0.4200
     39 H39        -6.3085    5.1954   57.9788 H       1  ZINC000004598904    0.1100
     40 H40        -7.9450    4.5344   57.7474 H       1  ZINC000004598904    0.1100
     41 H41        -5.5520    2.7001   58.0766 H       1  ZINC000004598904    0.1100
     42 H42        -6.3892    3.3775   59.4937 H       1  ZINC000004598904    0.1100
     43 H43        -6.5316    0.8747   57.0489 H       1  ZINC000004598904    0.4200
     44 H44        -9.5076    1.1485   55.9848 H       1  ZINC000004598904    0.1400
     45 H45       -11.2651   -0.5529   55.7599 H       1  ZINC000004598904    0.1400
     46 H46       -13.8643   -3.1417   57.0196 H       1  ZINC000004598904    0.0700
     47 H47       -13.6060   -4.7329   57.7742 H       1  ZINC000004598904    0.0700
     48 H48       -15.3482   -3.4472   58.9825 H       1  ZINC000004598904    0.0800
     49 H49       -13.9250   -3.7218   60.0157 H       1  ZINC000004598904    0.0700
     50 H50       -14.1833   -2.1305   59.2611 H       1  ZINC000004598904    0.0700
     51 H51        -9.1929   -3.0498   58.5700 H       1  ZINC000004598904    0.1400
     52 H52        -7.4384   -1.3436   58.7831 H       1  ZINC000004598904    0.1400
     53 H53        -3.8548    2.5042   54.7116 H       1  ZINC000004598904    0.1400
     54 H54        -3.3593    2.0950   52.3407 H       1  ZINC000004598904    0.1400
@<TRIPOS>BOND
     1     1     2    1
     2     1    31    1
     3     1    32    1
     4     1    33    1
     5     2     3    1
     6     2    34    1
     7     2    35    1
     8     3     4    1
     9     4     5    2
    10     4     6    1
    11     6    30   ar
    12     6     7   ar
    13     7     8   ar
    14     7    36    1
    15     8     9   ar
    16     8    37    1
    17     9    10    1
    18     9    29   ar
    19    10    11   am
    20    10    38    1
    21    11    12    2
    22    11    13    1
    23    13    14    1
    24    13    39    1
    25    13    40    1
    26    14    15    1
    27    14    41    1
    28    14    42    1
    29    15    16    2
    30    15    17   am
    31    17    18    1
    32    17    43    1
    33    18    28   ar
    34    18    19   ar
    35    19    20   ar
    36    19    44    1
    37    20    21   ar
    38    20    45    1
    39    21    22    1
    40    21    27   ar
    41    22    23    2
    42    22    24    1
    43    24    25    1
    44    25    26    1
    45    25    46    1
    46    25    47    1
    47    26    48    1
    48    26    49    1
    49    26    50    1
    50    27    28   ar
    51    27    51    1
    52    28    52    1
    53    29    30   ar
    54    29    53    1
    55    30    54    1
@<TRIPOS>SUBSTRUCTURE
     1 ZINC000004598904        1 TEMP              0 ****  ****    0 ROOT


##########                                Name:    ZINC000463474628
##########                DOCK_Rotatable_Bonds:                   5
##########                         Heavy_Atoms:                  25
##########                    Molecular_Weight:              407.35
##########                DOCK_Rotatable_Bonds:                   5
##########                       Formal_Charge:           0.0200004
##########                     HBond_Acceptors:                   4
##########                        HBond_Donors:                   0
##########                         Heavy_Atoms:                  25
##########                          Grid_Score:          -29.603022
##########                     Grid_vdw_energy:          -27.486609
##########                      Grid_es_energy:           -2.116412
##########           Internal_energy_repulsive:           26.421759

@<TRIPOS>MOLECULE
ZINC000463474628
 52 54 1 0 0
SMALL
USER_CHARGES


@<TRIPOS>ATOM
      1 C1        -10.4567    2.7834   65.0473 C.3     1  ZINC000463474628   -0.1400
      2 C2        -11.0014    1.3576   64.9414 C.3     1  ZINC000463474628   -0.1300
      3 C3         -9.8458    0.3877   64.6871 C.3     1  ZINC000463474628    0.1400
      4 H4        -10.2297   -0.6274   64.5854 H       1  ZINC000463474628    0.0800
      5 C5         -8.8387    0.4536   65.8544 C.3     1  ZINC000463474628   -0.1300
      6 C6         -7.4679    0.3301   65.1382 C.3     1  ZINC000463474628   -0.1300
      7 C7         -7.7330    1.1054   63.8235 C.3     1  ZINC000463474628    0.0900
      8 N8         -9.1276    0.7755   63.4642 N.am    1  ZINC000463474628   -0.6100
      9 C9         -9.6517    0.8243   62.2235 C.2     1  ZINC000463474628    0.5300
     10 O10       -10.8146    0.5304   62.0444 O.2     1  ZINC000463474628   -0.5100
     11 C11        -8.7926    1.2443   61.0587 C.3     1  ZINC000463474628   -0.1200
     12 H12        -7.7711    0.8981   61.2166 H       1  ZINC000463474628    0.1000
     13 C13        -8.8023    2.7701   60.9408 C.3     1  ZINC000463474628   -0.1000
     14 C14        -7.9041    3.1993   59.7785 C.3     1  ZINC000463474628   -0.1300
     15 C15        -8.4482    2.6100   58.4732 C.3     1  ZINC000463474628    0.0900
     16 N16        -8.5787    1.1550   58.6296 N.am    1  ZINC000463474628   -0.6000
     17 C17        -8.0047    0.3151   57.7454 C.2     1  ZINC000463474628    0.5700
     18 O18        -7.3718    0.7596   56.8076 O.2     1  ZINC000463474628   -0.5200
     19 C19        -8.1448   -1.1462   57.9161 C.ar    1  ZINC000463474628   -0.1200
     20 C20        -7.1643   -1.8694   58.5973 C.ar    1  ZINC000463474628   -0.0800
     21 C21        -7.3006   -3.2330   58.7533 C.ar    1  ZINC000463474628   -0.1000
     22 C22        -8.4072   -3.8847   58.2358 C.ar    1  ZINC000463474628   -0.0700
     23 Br23       -8.5868   -5.7543   58.4547 Br      1  ZINC000463474628   -0.0400
     24 C24        -9.3835   -3.1726   57.5589 C.ar    1  ZINC000463474628   -0.0900
     25 C25        -9.2612   -1.8082   57.4015 C.ar    1  ZINC000463474628   -0.0300
     26 C26       -10.3243   -1.0350   56.6646 C.3     1  ZINC000463474628   -0.1300
     27 C27        -9.3463    0.6321   59.7682 C.3     1  ZINC000463474628    0.1200
     28 H28       -10.0939    2.9595   66.0598 H       1  ZINC000463474628    0.0700
     29 H29        -9.6373    2.9127   64.3401 H       1  ZINC000463474628    0.0600
     30 H30       -11.2508    3.4938   64.8172 H       1  ZINC000463474628    0.0300
     31 H31       -11.5023    1.0901   65.8719 H       1  ZINC000463474628    0.0600
     32 H32       -11.7120    1.3004   64.1169 H       1  ZINC000463474628    0.0700
     33 H33        -8.9161    1.4069   66.3772 H       1  ZINC000463474628    0.0800
     34 H34        -8.9907   -0.3781   66.5424 H       1  ZINC000463474628    0.0800
     35 H35        -6.6787    0.8061   65.7202 H       1  ZINC000463474628    0.0900
     36 H36        -7.2261   -0.7130   64.9346 H       1  ZINC000463474628    0.0800
     37 H37        -7.6256    2.1776   63.9872 H       1  ZINC000463474628    0.0700
     38 H38        -7.0517    0.7700   63.0415 H       1  ZINC000463474628    0.0800
     39 H39        -9.8206    3.1137   60.7589 H       1  ZINC000463474628    0.0800
     40 H40        -8.4315    3.2083   61.8673 H       1  ZINC000463474628    0.0700
     41 H41        -7.8930    4.2871   59.7097 H       1  ZINC000463474628    0.0800
     42 H42        -6.8910    2.8347   59.9477 H       1  ZINC000463474628    0.0700
     43 H43        -9.4245    3.0431   58.2558 H       1  ZINC000463474628    0.0800
     44 H44        -7.7589    2.8295   57.6579 H       1  ZINC000463474628    0.1000
     45 H45        -6.3004   -1.3623   59.0011 H       1  ZINC000463474628    0.1400
     46 H46        -6.5425   -3.7937   59.2799 H       1  ZINC000463474628    0.1400
     47 H47       -10.2442   -3.6865   57.1571 H       1  ZINC000463474628    0.1400
     48 H48       -11.0349   -0.6217   57.3804 H       1  ZINC000463474628    0.0700
     49 H49        -9.8604   -0.2238   56.1035 H       1  ZINC000463474628    0.0900
     50 H50       -10.8467   -1.7002   55.9770 H       1  ZINC000463474628    0.0700
     51 H51        -9.2496   -0.4529   59.8067 H       1  ZINC000463474628    0.1000
     52 H52       -10.3960    0.9039   59.6568 H       1  ZINC000463474628    0.0800
@<TRIPOS>BOND
     1     1     2    1
     2     1    28    1
     3     1    29    1
     4     1    30    1
     5     2     3    1
     6     2    31    1
     7     2    32    1
     8     3     4    1
     9     3     8    1
    10     3     5    1
    11     5     6    1
    12     5    33    1
    13     5    34    1
    14     6     7    1
    15     6    35    1
    16     6    36    1
    17     7     8    1
    18     7    37    1
    19     7    38    1
    20     8     9   am
    21     9    10    2
    22     9    11    1
    23    11    12    1
    24    11    27    1
    25    11    13    1
    26    13    14    1
    27    13    39    1
    28    13    40    1
    29    14    15    1
    30    14    41    1
    31    14    42    1
    32    15    16    1
    33    15    43    1
    34    15    44    1
    35    16    17   am
    36    16    27    1
    37    17    18    2
    38    17    19    1
    39    19    25   ar
    40    19    20   ar
    41    20    21   ar
    42    20    45    1
    43    21    22   ar
    44    21    46    1
    45    22    23    1
    46    22    24   ar
    47    24    25   ar
    48    24    47    1
    49    25    26    1
    50    26    48    1
    51    26    49    1
    52    26    50    1
    53    27    51    1
    54    27    52    1
@<TRIPOS>SUBSTRUCTURE
     1 ZINC000463474628        1 TEMP              0 ****  ****    0 ROOT


##########                                Name:    ZINC001015666108
##########                DOCK_Rotatable_Bonds:                   7
##########                         Heavy_Atoms:                  25
##########                    Molecular_Weight:             346.429
##########                DOCK_Rotatable_Bonds:                   7
##########                       Formal_Charge:          -0.0199997
##########                     HBond_Acceptors:                   7
##########                        HBond_Donors:                   1
##########                         Heavy_Atoms:                  25
##########                          Grid_Score:          -29.591236
##########                     Grid_vdw_energy:          -29.451229
##########                      Grid_es_energy:           -0.140006
##########           Internal_energy_repulsive:           13.943006

@<TRIPOS>MOLECULE
ZINC001015666108
 51 53 1 0 0
SMALL
USER_CHARGES


@<TRIPOS>ATOM
      1 C1         -8.8094    2.4743   59.9173 C.3     1  ZINC001015666108   -0.1400
      2 C2         -7.4256    1.8577   59.7029 C.3     1  ZINC001015666108   -0.0700
      3 C3         -7.5514    0.6293   58.8391 C.2     1  ZINC001015666108   -0.0700
      4 C4         -7.5181    0.5855   57.4748 C.2     1  ZINC001015666108   -0.0900
      5 C5         -7.3528    1.7352   56.5794 C.2     1  ZINC001015666108    0.6100
      6 O6         -7.4842    2.8658   57.0103 O.2     1  ZINC001015666108   -0.5100
      7 N7         -7.0551    1.5398   55.2796 N.am    1  ZINC001015666108   -0.7200
      8 C8         -6.8917    2.6882   54.3848 C.3     1  ZINC001015666108    0.1400
      9 H9         -7.5408    3.5061   54.6976 H       1  ZINC001015666108    0.1100
     10 C10        -5.4164    3.1501   54.3687 C.3     1  ZINC001015666108   -0.1300
     11 C11        -4.8501    2.4566   53.1042 C.3     1  ZINC001015666108    0.0300
     12 N12        -5.9779    2.5331   52.1407 N.3     1  ZINC001015666108   -0.5100
     13 C13        -5.8272    1.5348   51.0736 C.3     1  ZINC001015666108    0.1700
     14 H14        -5.6855    0.5487   51.5160 H       1  ZINC001015666108    0.0900
     15 C15        -7.0844    1.5266   50.2017 C.3     1  ZINC001015666108   -0.1500
     16 C16        -4.6304    1.8819   50.2262 C.2     1  ZINC001015666108    0.1900
     17 N17        -3.4275    1.3696   50.3264 N.2     1  ZINC001015666108   -0.4800
     18 C18        -2.6957    1.9748   49.3740 C.2     1  ZINC001015666108    0.1800
     19 C19        -1.2383    1.7303   49.0789 C.3     1  ZINC001015666108    0.0000
     20 C20        -0.4493    1.7079   50.3895 C.3     1  ZINC001015666108   -0.1500
     21 C21        -1.0809    0.3860   48.3657 C.3     1  ZINC001015666108   -0.1500
     22 N22        -3.4764    2.8088   48.7547 N.2     1  ZINC001015666108   -0.3800
     23 O23        -4.5937    2.7666   49.2252 O.3     1  ZINC001015666108    0.1000
     24 C24        -7.2045    2.2830   52.9325 C.3     1  ZINC001015666108    0.0300
     25 O25        -7.6639   -0.7008   57.0947 O.3     1  ZINC001015666108   -0.1700
     26 C26        -7.7889   -1.4739   58.1811 C.2     1  ZINC001015666108    0.0000
     27 C27        -7.7196   -0.6922   59.2812 C.2     1  ZINC001015666108   -0.2200
     28 H28        -8.7184    3.3628   60.5422 H       1  ZINC001015666108    0.0600
     29 H29        -9.2375    2.7501   58.9536 H       1  ZINC001015666108    0.0600
     30 H30        -9.4581    1.7493   60.4089 H       1  ZINC001015666108    0.0500
     31 H31        -6.7769    2.5827   59.2114 H       1  ZINC001015666108    0.0900
     32 H32        -6.9975    1.5819   60.6667 H       1  ZINC001015666108    0.0700
     33 H33        -6.9492    0.6387   54.9364 H       1  ZINC001015666108    0.4000
     34 H34        -5.3527    4.2343   54.2752 H       1  ZINC001015666108    0.0900
     35 H35        -4.8952    2.8077   55.2626 H       1  ZINC001015666108    0.0800
     36 H36        -3.9828    2.9971   52.7249 H       1  ZINC001015666108    0.0800
     37 H37        -4.5951    1.4184   53.3165 H       1  ZINC001015666108    0.0500
     38 H38        -7.2262    2.5127   49.7593 H       1  ZINC001015666108    0.0800
     39 H39        -6.9727    0.7858   49.4099 H       1  ZINC001015666108    0.0700
     40 H40        -7.9501    1.2754   50.8145 H       1  ZINC001015666108    0.0800
     41 H41        -0.8583    2.5274   48.4398 H       1  ZINC001015666108    0.1000
     42 H42        -0.8293    0.9110   51.0288 H       1  ZINC001015666108    0.0600
     43 H43         0.6048    1.5311   50.1762 H       1  ZINC001015666108    0.0700
     44 H44        -0.5615    2.6657   50.8977 H       1  ZINC001015666108    0.0600
     45 H45        -1.4609   -0.4111   49.0049 H       1  ZINC001015666108    0.0600
     46 H46        -1.6429    0.4020   47.4319 H       1  ZINC001015666108    0.0600
     47 H47        -0.0267    0.2091   48.1523 H       1  ZINC001015666108    0.0700
     48 H48        -7.4647    1.2254   52.8900 H       1  ZINC001015666108    0.0600
     49 H49        -8.0258    2.8860   52.5451 H       1  ZINC001015666108    0.1000
     50 H50        -7.9193   -2.5460   58.1785 H       1  ZINC001015666108    0.2100
     51 H51        -7.7874   -1.0216   60.3075 H       1  ZINC001015666108    0.1600
@<TRIPOS>BOND
     1     1     2    1
     2     1    28    1
     3     1    29    1
     4     1    30    1
     5     2     3    1
     6     2    31    1
     7     2    32    1
     8     3    27    1
     9     3     4    2
    10     4     5    1
    11     4    25    1
    12     5     6    2
    13     5     7   am
    14     7     8    1
    15     7    33    1
    16     8     9    1
    17     8    24    1
    18     8    10    1
    19    10    11    1
    20    10    34    1
    21    10    35    1
    22    11    12    1
    23    11    36    1
    24    11    37    1
    25    12    13    1
    26    12    24    1
    27    13    14    1
    28    13    15    1
    29    13    16    1
    30    15    38    1
    31    15    39    1
    32    15    40    1
    33    16    23    1
    34    16    17    2
    35    17    18    1
    36    18    19    1
    37    18    22    2
    38    19    20    1
    39    19    21    1
    40    19    41    1
    41    20    42    1
    42    20    43    1
    43    20    44    1
    44    21    45    1
    45    21    46    1
    46    21    47    1
    47    22    23    1
    48    24    48    1
    49    24    49    1
    50    25    26    1
    51    26    27    2
    52    26    50    1
    53    27    51    1
@<TRIPOS>SUBSTRUCTURE
     1 ZINC001015666108        1 TEMP              0 ****  ****    0 ROOT


##########                                Name:    ZINC000906038034
##########                DOCK_Rotatable_Bonds:                   5
##########                         Heavy_Atoms:                  23
##########                    Molecular_Weight:             387.428
##########                DOCK_Rotatable_Bonds:                   5
##########                       Formal_Charge:         -0.00999987
##########                     HBond_Acceptors:                  12
##########                        HBond_Donors:                   0
##########                         Heavy_Atoms:                  23
##########                          Grid_Score:          -29.589426
##########                     Grid_vdw_energy:          -26.579874
##########                      Grid_es_energy:           -3.009552
##########           Internal_energy_repulsive:            2.304893

@<TRIPOS>MOLECULE
ZINC000906038034
 35 36 1 0 0
SMALL
USER_CHARGES


@<TRIPOS>ATOM
      1 C1         -7.1139    3.5360   58.8094 C.3     1  ZINC000906038034    0.1000
      2 N2         -6.3509    3.1777   57.6111 N.pl3   1  ZINC000906038034   -0.3700
      3 C3         -5.0051    3.1863   57.4968 C.2     1  ZINC000906038034    0.0600
      4 C4         -4.6897    2.7954   56.2434 C.2     1  ZINC000906038034   -0.2500
      5 C5         -5.8934    2.5348   55.5564 C.2     1  ZINC000906038034    0.1200
      6 C6         -6.0146    2.0815   54.1539 C.2     1  ZINC000906038034    0.1500
      7 N7         -5.0423    2.0315   53.2890 N.2     1  ZINC000906038034   -0.4300
      8 C8         -5.3370    1.5997   52.0838 C.2     1  ZINC000906038034    0.0600
      9 C9         -4.3000    1.4953   50.9954 C.3     1  ZINC000906038034   -0.5300
     10 S10        -4.2299    3.0569   50.0752 S.o2    1  ZINC000906038034    2.4200
     11 O11        -5.2807    3.0664   49.1187 O.2     1  ZINC000906038034   -0.9100
     12 O12        -4.1287    4.1264   51.0053 O.2     1  ZINC000906038034   -0.9200
     13 C13        -2.6502    2.9037   49.1967 C.3     1  ZINC000906038034   -0.6100
     14 C14        -2.8271    1.9864   47.9851 C.3     1  ZINC000906038034   -0.4500
     15 S15        -1.2820    1.9331   47.0363 S.o     1  ZINC000906038034    1.3300
     16 O16        -0.9959    3.2274   46.5240 O.2     1  ZINC000906038034   -0.7600
     17 C17        -1.6836    0.8155   45.6650 C.3     1  ZINC000906038034    0.1200
     18 F18        -2.7489    1.3448   44.9286 F       1  ZINC000906038034   -0.1900
     19 F19        -0.5664    0.6760   44.8346 F       1  ZINC000906038034   -0.1700
     20 F20        -2.0453   -0.4363   46.1744 F       1  ZINC000906038034   -0.1600
     21 C21        -6.6135    1.2583   51.8830 C.2     1  ZINC000906038034   -0.2300
     22 S22        -7.4961    1.5150   53.3869 S.3     1  ZINC000906038034    0.1600
     23 N23        -6.8908    2.7613   56.3876 N.2     1  ZINC000906038034   -0.2400
     24 H24        -7.2658    2.6477   59.4225 H       1  ZINC000906038034    0.0800
     25 H25        -6.5625    4.2823   59.3815 H       1  ZINC000906038034    0.0900
     26 H26        -8.0808    3.9447   58.5158 H       1  ZINC000906038034    0.0900
     27 H27        -4.3040    3.4586   58.2720 H       1  ZINC000906038034    0.1800
     28 H28        -3.6929    2.6998   55.8389 H       1  ZINC000906038034    0.1600
     29 H29        -3.3259    1.2914   51.4400 H       1  ZINC000906038034    0.1500
     30 H30        -4.5661    0.6851   50.3165 H       1  ZINC000906038034    0.1600
     31 H31        -2.3233    3.8884   48.8624 H       1  ZINC000906038034    0.1500
     32 H32        -1.9016    2.4806   49.8666 H       1  ZINC000906038034    0.1500
     33 H33        -3.0803    0.9819   48.3239 H       1  ZINC000906038034    0.1600
     34 H34        -3.6285    2.3695   47.3534 H       1  ZINC000906038034    0.1300
     35 H35        -7.0314    0.8853   50.9596 H       1  ZINC000906038034    0.1900
@<TRIPOS>BOND
     1     1     2    1
     2     1    24    1
     3     1    25    1
     4     1    26    1
     5     2    23    1
     6     2     3    1
     7     3     4    2
     8     3    27    1
     9     4     5    1
    10     4    28    1
    11     5     6    1
    12     5    23    2
    13     6    22    1
    14     6     7    2
    15     7     8    1
    16     8     9    1
    17     8    21    2
    18     9    10    1
    19     9    29    1
    20     9    30    1
    21    10    11    2
    22    10    12    2
    23    10    13    1
    24    13    14    1
    25    13    31    1
    26    13    32    1
    27    14    15    1
    28    14    33    1
    29    14    34    1
    30    15    16    2
    31    15    17    1
    32    17    18    1
    33    17    19    1
    34    17    20    1
    35    21    22    1
    36    21    35    1
@<TRIPOS>SUBSTRUCTURE
     1 ZINC000906038034        1 TEMP              0 ****  ****    0 ROOT


##########                                Name:    ZINC000123469372
##########                DOCK_Rotatable_Bonds:                   7
##########                         Heavy_Atoms:                  25
##########                    Molecular_Weight:             341.382
##########                DOCK_Rotatable_Bonds:                   7
##########                       Formal_Charge:          -0.0300001
##########                     HBond_Acceptors:                   5
##########                        HBond_Donors:                   2
##########                         Heavy_Atoms:                  25
##########                          Grid_Score:          -29.576756
##########                     Grid_vdw_energy:          -28.266144
##########                      Grid_es_energy:           -1.310611
##########           Internal_energy_repulsive:            9.702140

@<TRIPOS>MOLECULE
ZINC000123469372
 45 47 1 0 0
SMALL
USER_CHARGES


@<TRIPOS>ATOM
      1 C1          0.2088    1.6582   50.2985 C.3     1  ZINC000123469372   -0.1700
      2 C2         -0.9838    1.5049   49.3524 C.3     1  ZINC000123469372    0.1500
      3 H3         -1.0080    2.3456   48.6591 H       1  ZINC000123469372    0.0900
      4 C4         -0.8468    0.1995   48.5664 C.3     1  ZINC000123469372   -0.1600
      5 C5         -1.7364    0.2570   47.3230 C.3     1  ZINC000123469372    0.1500
      6 H6         -2.7658    0.4547   47.6217 H       1  ZINC000123469372    0.1100
      7 O7         -1.6722   -0.9927   46.6330 O.3     1  ZINC000123469372   -0.5500
      8 C8         -1.2570    1.3585   46.4130 C.ar    1  ZINC000123469372   -0.1200
      9 C9          0.0747    1.4231   46.0481 C.ar    1  ZINC000123469372   -0.1100
     10 C10         0.5144    2.4335   45.2133 C.ar    1  ZINC000123469372   -0.1200
     11 C11        -0.3777    3.3789   44.7431 C.ar    1  ZINC000123469372   -0.1200
     12 C12        -1.7097    3.3138   45.1073 C.ar    1  ZINC000123469372   -0.1200
     13 C13        -2.1502    2.3009   45.9386 C.ar    1  ZINC000123469372   -0.1100
     14 N14        -2.2245    1.4782   50.1310 N.am    1  ZINC000123469372   -0.7100
     15 C15        -3.1613    2.4278   49.9387 C.2     1  ZINC000123469372    0.5700
     16 O16        -2.9760    3.3085   49.1191 O.2     1  ZINC000123469372   -0.5400
     17 C17        -4.4006    2.4002   50.7146 C.2     1  ZINC000123469372   -0.2200
     18 C18        -4.3749    2.0606   52.0270 C.2     1  ZINC000123469372    0.0000
     19 C19        -5.6532    2.0295   52.7547 C.ar    1  ZINC000123469372   -0.1200
     20 C20        -5.6974    2.0209   54.1481 C.ar    1  ZINC000123469372   -0.0900
     21 C21        -6.9209    1.9910   54.7898 C.ar    1  ZINC000123469372    0.0700
     22 F22        -6.9722    1.9828   56.1398 F       1  ZINC000123469372   -0.1400
     23 C23        -8.0967    1.9699   54.0541 C.ar    1  ZINC000123469372   -0.1100
     24 C24        -8.0624    1.9779   52.6716 C.ar    1  ZINC000123469372   -0.1200
     25 C25        -6.8470    2.0081   52.0125 C.ar    1  ZINC000123469372    0.1300
     26 O26        -6.7804    2.0160   50.6580 O.3     1  ZINC000123469372   -0.3000
     27 C27        -5.7107    2.7550   50.0607 C.3     1  ZINC000123469372    0.1100
     28 H28         1.1320    1.6780   49.7192 H       1  ZINC000123469372    0.0700
     29 H29         0.1111    2.5882   50.8585 H       1  ZINC000123469372    0.0600
     30 H30         0.2330    0.8175   50.9919 H       1  ZINC000123469372    0.0600
     31 H31         0.1917    0.0645   48.2643 H       1  ZINC000123469372    0.0900
     32 H32        -1.1539   -0.6368   49.1945 H       1  ZINC000123469372    0.0800
     33 H33        -1.8478   -1.7609   47.1935 H       1  ZINC000123469372    0.3700
     34 H34         0.7717    0.6845   46.4154 H       1  ZINC000123469372    0.1200
     35 H35         1.5550    2.4844   44.9288 H       1  ZINC000123469372    0.1200
     36 H36        -0.0341    4.1687   44.0915 H       1  ZINC000123469372    0.1200
     37 H37        -2.4066    4.0526   44.7401 H       1  ZINC000123469372    0.1200
     38 H38        -3.1908    2.2500   46.2231 H       1  ZINC000123469372    0.1200
     39 H39        -2.3717    0.7772   50.7850 H       1  ZINC000123469372    0.4000
     40 H40        -3.4458    1.8202   52.5224 H       1  ZINC000123469372    0.1500
     41 H41        -4.7824    2.0370   54.7216 H       1  ZINC000123469372    0.1500
     42 H42        -9.0475    1.9466   54.5655 H       1  ZINC000123469372    0.1500
     43 H43        -8.9832    1.9606   52.1076 H       1  ZINC000123469372    0.1500
     44 H44        -5.9011    3.8219   50.1763 H       1  ZINC000123469372    0.0800
     45 H45        -5.6557    2.5149   48.9989 H       1  ZINC000123469372    0.1100
@<TRIPOS>BOND
     1     1     2    1
     2     1    28    1
     3     1    29    1
     4     1    30    1
     5     2     3    1
     6     2     4    1
     7     2    14    1
     8     4     5    1
     9     4    31    1
    10     4    32    1
    11     5     6    1
    12     5     7    1
    13     5     8    1
    14     7    33    1
    15     8    13   ar
    16     8     9   ar
    17     9    10   ar
    18     9    34    1
    19    10    11   ar
    20    10    35    1
    21    11    12   ar
    22    11    36    1
    23    12    13   ar
    24    12    37    1
    25    13    38    1
    26    14    15   am
    27    14    39    1
    28    15    16    2
    29    15    17    1
    30    17    27    1
    31    17    18    2
    32    18    19    1
    33    18    40    1
    34    19    25   ar
    35    19    20   ar
    36    20    21   ar
    37    20    41    1
    38    21    22    1
    39    21    23   ar
    40    23    24   ar
    41    23    42    1
    42    24    25   ar
    43    24    43    1
    44    25    26    1
    45    26    27    1
    46    27    44    1
    47    27    45    1
@<TRIPOS>SUBSTRUCTURE
     1 ZINC000123469372        1 TEMP              0 ****  ****    0 ROOT


##########                                Name:    ZINC000866034032
##########                DOCK_Rotatable_Bonds:                   4
##########                         Heavy_Atoms:                  23
##########                    Molecular_Weight:             383.242
##########                DOCK_Rotatable_Bonds:                   4
##########                       Formal_Charge:           0.0199999
##########                     HBond_Acceptors:                   6
##########                        HBond_Donors:                   1
##########                         Heavy_Atoms:                  23
##########                          Grid_Score:          -29.543892
##########                     Grid_vdw_energy:          -28.452896
##########                      Grid_es_energy:           -1.090996
##########           Internal_energy_repulsive:           15.208631

@<TRIPOS>MOLECULE
ZINC000866034032
 42 44 1 0 0
SMALL
USER_CHARGES


@<TRIPOS>ATOM
      1 C1         -8.4291    1.7505   51.6872 C.3     1  ZINC000866034032   -0.1300
      2 C2         -6.9550    1.9946   52.0168 C.3     1  ZINC000866034032   -0.0800
      3 C3         -6.0084    1.1578   51.1539 C.3     1  ZINC000866034032   -0.1300
      4 C4         -6.5782    3.4829   52.0778 C.3     1  ZINC000866034032    0.1400
      5 H5         -7.2379    4.1233   51.4922 H       1  ZINC000866034032    0.1100
      6 N6         -5.1597    3.7384   51.8155 N.am    1  ZINC000866034032   -0.7000
      7 C7         -4.7293    3.9143   50.5505 C.2     1  ZINC000866034032    0.5100
      8 O8         -5.5161    3.8597   49.6292 O.2     1  ZINC000866034032   -0.5300
      9 C9         -3.2705    4.1788   50.2808 C.3     1  ZINC000866034032   -0.1100
     10 C10        -2.6608    2.9820   49.5973 C.ar    1  ZINC000866034032   -0.0500
     11 C11        -1.9393    2.0600   50.3322 C.ar    1  ZINC000866034032   -0.0500
     12 C12        -1.3796    0.9622   49.7056 C.ar    1  ZINC000866034032   -0.0900
     13 C13        -1.5420    0.7863   48.3435 C.ar    1  ZINC000866034032   -0.0500
     14 Br14       -0.7771   -0.7155   47.4860 Br      1  ZINC000866034032    0.0200
     15 C15        -2.2646    1.7091   47.6086 C.ar    1  ZINC000866034032   -0.0200
     16 N16        -2.4391    1.5211   46.1509 N.pl3   1  ZINC000866034032    0.0200
     17 O17        -3.0754    2.3337   45.5040 O.2     1  ZINC000866034032   -0.1600
     18 O18        -1.9465    0.5539   45.5983 O.2     1  ZINC000866034032   -0.1300
     19 C19        -2.8282    2.8035   48.2366 C.ar    1  ZINC000866034032   -0.0300
     20 C20        -6.9302    3.4435   53.5739 C.3     1  ZINC000866034032   -0.1500
     21 H21        -7.9424    3.7469   53.8413 H       1  ZINC000866034032    0.1200
     22 C22        -5.8097    4.0177   54.4693 C.3     1  ZINC000866034032   -0.1400
     23 C23        -4.9674    2.7828   54.8581 C.3     1  ZINC000866034032    0.0500
     24 O24        -5.2163    1.8216   53.8096 O.3     1  ZINC000866034032   -0.3600
     25 C25        -6.6421    1.9213   53.5186 C.3     1  ZINC000866034032    0.0600
     26 H26        -7.2800    1.2760   54.1225 H       1  ZINC000866034032    0.1000
     27 H27        -9.0544    2.2514   52.4263 H       1  ZINC000866034032    0.0600
     28 H28        -8.6501    2.1464   50.6960 H       1  ZINC000866034032    0.0700
     29 H29        -8.6328    0.6799   51.7046 H       1  ZINC000866034032    0.0700
     30 H30        -6.0348    1.5225   50.1271 H       1  ZINC000866034032    0.0600
     31 H31        -4.9935    1.2406   51.5428 H       1  ZINC000866034032    0.0600
     32 H32        -6.3225    0.1143   51.1770 H       1  ZINC000866034032    0.0600
     33 H33        -4.5302    3.7809   52.5523 H       1  ZINC000866034032    0.4100
     34 H34        -3.1726    5.0534   49.6375 H       1  ZINC000866034032    0.1100
     35 H35        -2.7539    4.3613   51.2232 H       1  ZINC000866034032    0.1200
     36 H36        -1.8125    2.1975   51.3959 H       1  ZINC000866034032    0.1500
     37 H37        -0.8152    0.2422   50.2797 H       1  ZINC000866034032    0.1600
     38 H38        -3.3927    3.5238   47.6630 H       1  ZINC000866034032    0.1600
     39 H39        -5.2044    4.7326   53.9120 H       1  ZINC000866034032    0.0800
     40 H40        -6.2334    4.4859   55.3579 H       1  ZINC000866034032    0.0800
     41 H41        -3.9090    3.0410   54.8927 H       1  ZINC000866034032    0.0900
     42 H42        -5.2943    2.3881   55.8201 H       1  ZINC000866034032    0.0600
@<TRIPOS>BOND
     1     1     2    1
     2     1    27    1
     3     1    28    1
     4     1    29    1
     5     2    25    1
     6     2     3    1
     7     2     4    1
     8     3    30    1
     9     3    31    1
    10     3    32    1
    11     4     5    1
    12     4     6    1
    13     4    20    1
    14     6     7   am
    15     6    33    1
    16     7     8    2
    17     7     9    1
    18     9    10    1
    19     9    34    1
    20     9    35    1
    21    10    19   ar
    22    10    11   ar
    23    11    12   ar
    24    11    36    1
    25    12    13   ar
    26    12    37    1
    27    13    14    1
    28    13    15   ar
    29    15    16    1
    30    15    19   ar
    31    16    17    2
    32    16    18    2
    33    19    38    1
    34    20    21    1
    35    20    25    1
    36    20    22    1
    37    22    23    1
    38    22    39    1
    39    22    40    1
    40    23    24    1
    41    23    41    1
    42    23    42    1
    43    24    25    1
    44    25    26    1
@<TRIPOS>SUBSTRUCTURE
     1 ZINC000866034032        1 TEMP              0 ****  ****    0 ROOT


##########                                Name:    ZINC000563265674
##########                DOCK_Rotatable_Bonds:                   7
##########                         Heavy_Atoms:                  25
##########                    Molecular_Weight:             386.859
##########                DOCK_Rotatable_Bonds:                   7
##########                       Formal_Charge:          0.00999963
##########                     HBond_Acceptors:                  10
##########                        HBond_Donors:                   2
##########                         Heavy_Atoms:                  25
##########                          Grid_Score:          -29.542700
##########                     Grid_vdw_energy:          -28.526318
##########                      Grid_es_energy:           -1.016382
##########           Internal_energy_repulsive:           11.876677

@<TRIPOS>MOLECULE
ZINC000563265674
 44 45 1 0 0
SMALL
USER_CHARGES


@<TRIPOS>ATOM
      1 C1        -11.6354    5.2223   48.9293 C.3     1  ZINC000563265674   -0.0600
      2 C2        -10.3529    5.0878   49.7092 C.2     1  ZINC000563265674    0.1700
      3 N3         -9.5673    6.0579   50.0705 N.2     1  ZINC000563265674   -0.3800
      4 O4         -8.6175    5.6217   50.6861 O.3     1  ZINC000563265674    0.0900
      5 C5         -8.7097    4.2917   50.7786 C.2     1  ZINC000563265674    0.1900
      6 C6         -7.7338    3.3698   51.4635 C.3     1  ZINC000563265674    0.2100
      7 C7         -8.1434    3.1897   52.9267 C.3     1  ZINC000563265674   -0.1400
      8 C8         -7.7378    2.0104   50.7617 C.3     1  ZINC000563265674   -0.1800
      9 N9         -6.3856    3.9497   51.4003 N.3     1  ZINC000563265674   -0.6600
     10 C10        -6.0450    4.3415   50.0261 C.3     1  ZINC000563265674    0.0400
     11 C11        -4.6812    3.8055   49.6744 C.2     1  ZINC000563265674    0.5200
     12 O12        -3.7022    4.5112   49.7965 O.2     1  ZINC000563265674   -0.4900
     13 N13        -4.5491    2.5421   49.2240 N.am    1  ZINC000563265674   -0.6700
     14 C14        -3.2822    2.0443   48.8973 C.ar    1  ZINC000563265674    0.1400
     15 C15        -2.7929    2.1813   47.6056 C.ar    1  ZINC000563265674   -0.0300
     16 C16        -1.5421    1.6894   47.2862 C.ar    1  ZINC000563265674   -0.6400
     17 S17        -0.9204    1.8635   45.6468 S.o2    1  ZINC000563265674    2.5000
     18 C18        -1.5958    0.4369   44.7527 C.3     1  ZINC000563265674   -0.6500
     19 O19        -1.5059    3.0697   45.1762 O.2     1  ZINC000563265674   -0.9300
     20 O20         0.4878    1.7403   45.7911 O.2     1  ZINC000563265674   -0.9300
     21 C21        -0.7772    1.0608   48.2513 C.ar    1  ZINC000563265674   -0.0300
     22 C22        -1.2612    0.9218   49.5394 C.ar    1  ZINC000563265674   -0.1100
     23 C23        -2.5092    1.4166   49.8670 C.ar    1  ZINC000563265674   -0.0200
     24 Cl24       -3.1161    1.2425   51.4841 Cl      1  ZINC000563265674   -0.0500
     25 N25        -9.8141    3.9425   50.1639 N.2     1  ZINC000563265674   -0.4700
     26 H26       -12.4680    5.3572   49.6198 H       1  ZINC000563265674    0.0900
     27 H27       -11.5691    6.0853   48.2669 H       1  ZINC000563265674    0.0900
     28 H28       -11.7968    4.3213   48.3373 H       1  ZINC000563265674    0.0900
     29 H29        -9.1438    2.7595   52.9736 H       1  ZINC000563265674    0.0800
     30 H30        -7.4376    2.5230   53.4221 H       1  ZINC000563265674    0.0800
     31 H31        -8.1406    4.1582   53.4267 H       1  ZINC000563265674    0.0700
     32 H32        -7.4460    2.1387   49.7194 H       1  ZINC000563265674    0.0700
     33 H33        -7.0320    1.3437   51.2571 H       1  ZINC000563265674    0.0800
     34 H34        -8.7382    1.5802   50.8086 H       1  ZINC000563265674    0.0800
     35 H35        -6.2986    4.7322   52.0314 H       1  ZINC000563265674    0.3600
     36 H36        -6.7846    3.9325   49.3378 H       1  ZINC000563265674    0.1200
     37 H37        -6.0391    5.4287   49.9491 H       1  ZINC000563265674    0.0800
     38 H38        -5.3319    1.9778   49.1264 H       1  ZINC000563265674    0.4200
     39 H39        -3.3897    2.6718   46.8508 H       1  ZINC000563265674    0.1700
     40 H40        -2.6848    0.4729   44.7809 H       1  ZINC000563265674    0.1300
     41 H41        -1.2581    0.4643   43.7167 H       1  ZINC000563265674    0.1400
     42 H42        -1.2504   -0.4836   45.2233 H       1  ZINC000563265674    0.1400
     43 H43         0.2002    0.6772   47.9987 H       1  ZINC000563265674    0.1500
     44 H44        -0.6615    0.4301   50.2910 H       1  ZINC000563265674    0.1500
@<TRIPOS>BOND
     1     1     2    1
     2     1    26    1
     3     1    27    1
     4     1    28    1
     5     2    25    1
     6     2     3    2
     7     3     4    1
     8     4     5    1
     9     5     6    1
    10     5    25    2
    11     6     7    1
    12     6     8    1
    13     6     9    1
    14     7    29    1
    15     7    30    1
    16     7    31    1
    17     8    32    1
    18     8    33    1
    19     8    34    1
    20     9    10    1
    21     9    35    1
    22    10    11    1
    23    10    36    1
    24    10    37    1
    25    11    12    2
    26    11    13   am
    27    13    14    1
    28    13    38    1
    29    14    23   ar
    30    14    15   ar
    31    15    16   ar
    32    15    39    1
    33    16    17    1
    34    16    21   ar
    35    17    18    1
    36    17    19    2
    37    17    20    2
    38    18    40    1
    39    18    41    1
    40    18    42    1
    41    21    22   ar
    42    21    43    1
    43    22    23   ar
    44    22    44    1
    45    23    24    1
@<TRIPOS>SUBSTRUCTURE
     1 ZINC000563265674        1 TEMP              0 ****  ****    0 ROOT


##########                                Name:    ZINC000194290865
##########                DOCK_Rotatable_Bonds:                   7
##########                         Heavy_Atoms:                  28
##########                    Molecular_Weight:             387.479
##########                DOCK_Rotatable_Bonds:                   7
##########                       Formal_Charge:          -0.0400003
##########                     HBond_Acceptors:                   7
##########                        HBond_Donors:                   0
##########                         Heavy_Atoms:                  28
##########                          Grid_Score:          -29.535505
##########                     Grid_vdw_energy:          -28.951717
##########                      Grid_es_energy:           -0.583788
##########           Internal_energy_repulsive:           38.779331

@<TRIPOS>MOLECULE
ZINC000194290865
 57 59 1 0 0
SMALL
USER_CHARGES


@<TRIPOS>ATOM
      1 C1         -7.1666    1.2646   50.3751 C.3     1  ZINC000194290865   -0.1500
      2 C2         -8.0709    0.5857   51.4056 C.3     1  ZINC000194290865    0.0600
      3 O3         -9.0480    1.5411   51.8962 O.3     1  ZINC000194290865   -0.3600
      4 C4         -9.9322    1.0972   52.8033 C.2     1  ZINC000194290865    0.4700
      5 O5        -11.0417    0.7689   52.4551 O.2     1  ZINC000194290865   -0.4900
      6 C6         -9.5413    1.0083   54.2560 C.3     1  ZINC000194290865   -0.0600
      7 C7         -8.3614    1.9381   54.5459 C.3     1  ZINC000194290865   -0.0700
      8 C8         -8.7872    3.3895   54.3155 C.3     1  ZINC000194290865   -0.1700
      9 C9         -7.9178    1.7613   55.9994 C.3     1  ZINC000194290865   -0.1600
     10 C10       -10.7445    1.3661   55.1589 C.3     1  ZINC000194290865   -0.1200
     11 C11       -11.3195   -0.0232   55.5327 C.3     1  ZINC000194290865    0.0900
     12 N12       -10.1081   -0.8598   55.6950 N.am    1  ZINC000194290865   -0.6100
     13 C13        -9.8958   -1.8085   56.6284 C.2     1  ZINC000194290865    0.5800
     14 O14        -8.8468   -2.4220   56.6437 O.2     1  ZINC000194290865   -0.5000
     15 C15       -10.9402   -2.1032   57.6349 C.ar    1  ZINC000194290865    0.0100
     16 C16       -10.8139   -1.6600   58.9655 C.ar    1  ZINC000194290865   -0.2200
     17 C17       -11.8290   -1.9616   59.8898 C.ar    1  ZINC000194290865    0.3000
     18 N18       -12.8897   -2.6555   59.5066 N.ar    1  ZINC000194290865   -0.4700
     19 C19       -13.0348   -3.0827   58.2704 C.ar    1  ZINC000194290865    0.2100
     20 C20       -14.2686   -3.8667   57.9043 C.3     1  ZINC000194290865   -0.1100
     21 C21       -12.0848   -2.8243   57.2955 C.ar    1  ZINC000194290865   -0.1800
     22 O22       -11.4559   -1.4249   61.0691 O.3     1  ZINC000194290865   -0.0800
     23 N23       -10.2085   -0.7783   60.9177 N.2     1  ZINC000194290865   -0.2600
     24 C24        -9.7997   -0.8963   59.6912 C.2     1  ZINC000194290865    0.1600
     25 C25        -8.5170   -0.3481   59.1209 C.3     1  ZINC000194290865   -0.0400
     26 C26        -8.2062    1.0021   59.7700 C.3     1  ZINC000194290865   -0.1500
     27 C27        -7.3742   -1.3253   59.4042 C.3     1  ZINC000194290865   -0.1400
     28 C28        -9.1821   -0.4430   54.6254 C.3     1  ZINC000194290865    0.1200
     29 H29        -7.7711    1.6258   49.5431 H       1  ZINC000194290865    0.0700
     30 H30        -6.6513    2.1044   50.8413 H       1  ZINC000194290865    0.0700
     31 H31        -6.4331    0.5474   50.0069 H       1  ZINC000194290865    0.0800
     32 H32        -8.5862   -0.2542   50.9394 H       1  ZINC000194290865    0.0700
     33 H33        -7.4664    0.2245   52.2376 H       1  ZINC000194290865    0.0700
     34 H34        -7.5334    1.6925   53.8809 H       1  ZINC000194290865    0.0900
     35 H35        -9.1032    3.5155   53.2800 H       1  ZINC000194290865    0.0500
     36 H36        -9.6153    3.6351   54.9806 H       1  ZINC000194290865    0.0800
     37 H37        -7.9466    4.0520   54.5220 H       1  ZINC000194290865    0.0600
     38 H38        -7.6145    0.7273   56.1636 H       1  ZINC000194290865    0.0500
     39 H39        -7.0772    2.4237   56.2060 H       1  ZINC000194290865    0.0600
     40 H40        -8.7459    2.0068   56.6644 H       1  ZINC000194290865    0.0800
     41 H41       -10.4132    1.8993   56.0500 H       1  ZINC000194290865    0.0900
     42 H42       -11.4796    1.9525   54.6077 H       1  ZINC000194290865    0.0900
     43 H43       -11.8779    0.0305   56.4673 H       1  ZINC000194290865    0.0900
     44 H44       -11.9481   -0.4082   54.7297 H       1  ZINC000194290865    0.0900
     45 H45       -15.0485   -3.1822   57.5708 H       1  ZINC000194290865    0.0900
     46 H46       -14.0306   -4.5650   57.1019 H       1  ZINC000194290865    0.0900
     47 H47       -14.6192   -4.4201   58.7755 H       1  ZINC000194290865    0.0900
     48 H48       -12.2248   -3.1845   56.2870 H       1  ZINC000194290865    0.1600
     49 H49        -8.6247   -0.2174   58.0441 H       1  ZINC000194290865    0.1100
     50 H50        -8.0985    0.8714   60.8468 H       1  ZINC000194290865    0.0700
     51 H51        -7.2784    1.3986   59.3575 H       1  ZINC000194290865    0.0700
     52 H52        -9.0203    1.6982   59.5682 H       1  ZINC000194290865    0.0600
     53 H53        -7.5956   -2.2871   58.9417 H       1  ZINC000194290865    0.0600
     54 H54        -6.4465   -0.9287   58.9917 H       1  ZINC000194290865    0.0700
     55 H55        -7.2665   -1.4560   60.4809 H       1  ZINC000194290865    0.0600
     56 H56        -9.3046   -1.0886   53.7558 H       1  ZINC000194290865    0.0800
     57 H57        -8.1541   -0.4911   54.9848 H       1  ZINC000194290865    0.1000
@<TRIPOS>BOND
     1     1     2    1
     2     1    29    1
     3     1    30    1
     4     1    31    1
     5     2     3    1
     6     2    32    1
     7     2    33    1
     8     3     4    1
     9     4     5    2
    10     4     6    1
    11     6    28    1
    12     6     7    1
    13     6    10    1
    14     7     8    1
    15     7     9    1
    16     7    34    1
    17     8    35    1
    18     8    36    1
    19     8    37    1
    20     9    38    1
    21     9    39    1
    22     9    40    1
    23    10    11    1
    24    10    41    1
    25    10    42    1
    26    11    12    1
    27    11    43    1
    28    11    44    1
    29    12    13   am
    30    12    28    1
    31    13    14    2
    32    13    15    1
    33    15    21   ar
    34    15    16   ar
    35    16    24    1
    36    16    17   ar
    37    17    18   ar
    38    17    22    1
    39    18    19   ar
    40    19    20    1
    41    19    21   ar
    42    20    45    1
    43    20    46    1
    44    20    47    1
    45    21    48    1
    46    22    23    1
    47    23    24    2
    48    24    25    1
    49    25    26    1
    50    25    27    1
    51    25    49    1
    52    26    50    1
    53    26    51    1
    54    26    52    1
    55    27    53    1
    56    27    54    1
    57    27    55    1
    58    28    56    1
    59    28    57    1
@<TRIPOS>SUBSTRUCTURE
     1 ZINC000194290865        1 TEMP              0 ****  ****    0 ROOT


##########                                Name:    ZINC000081577146
##########                DOCK_Rotatable_Bonds:                   4
##########                         Heavy_Atoms:                  25
##########                    Molecular_Weight:             355.464
##########                DOCK_Rotatable_Bonds:                   4
##########                       Formal_Charge:                0.02
##########                     HBond_Acceptors:                   7
##########                        HBond_Donors:                   0
##########                         Heavy_Atoms:                  25
##########                          Grid_Score:          -29.525053
##########                     Grid_vdw_energy:          -29.058771
##########                      Grid_es_energy:           -0.466281
##########           Internal_energy_repulsive:           11.518069

@<TRIPOS>MOLECULE
ZINC000081577146
 46 49 1 0 0
SMALL
USER_CHARGES


@<TRIPOS>ATOM
      1 C1         -2.2143    1.6067   49.9618 C.3     1  ZINC000081577146   -0.0700
      2 C2         -3.6620    2.0233   50.0058 C.2     1  ZINC000081577146    0.2900
      3 N3         -4.1103    2.9750   49.2401 N.2     1  ZINC000081577146   -0.4800
      4 S4         -5.7641    3.1201   49.6039 S.3     1  ZINC000081577146    0.1900
      5 C5         -5.7547    1.8677   50.7872 C.2     1  ZINC000081577146    0.2700
      6 N6         -6.8219    1.4134   51.5409 N.3     1  ZINC000081577146   -0.4300
      7 C7         -7.3088    0.1210   51.0388 C.3     1  ZINC000081577146    0.0700
      8 C8         -8.4340   -0.3841   51.9449 C.3     1  ZINC000081577146    0.0500
      9 N9         -9.5177    0.6079   51.9752 N.3     1  ZINC000081577146   -0.5200
     10 C10       -10.6510    0.1255   52.7756 C.3     1  ZINC000081577146    0.1900
     11 H11       -10.7371   -0.9559   52.6688 H       1  ZINC000081577146    0.0700
     12 C12       -11.9397    0.7903   52.2876 C.3     1  ZINC000081577146   -0.1500
     13 C13       -10.4255    0.4707   54.2251 C.2     1  ZINC000081577146    0.1900
     14 N14       -10.9285    1.5015   54.8446 N.2     1  ZINC000081577146   -0.4500
     15 C15       -10.5138    1.4869   56.1202 C.2     1  ZINC000081577146   -0.0200
     16 C16        -9.7223    0.3954   56.2801 C.2     1  ZINC000081577146    0.0000
     17 C17        -9.0423   -0.0252   57.5234 C.ar    1  ZINC000081577146   -0.0200
     18 C18        -9.1544    0.7484   58.6797 C.ar    1  ZINC000081577146   -0.1000
     19 C19        -8.5176    0.3498   59.8369 C.ar    1  ZINC000081577146   -0.1200
     20 C20        -7.7689   -0.8135   59.8527 C.ar    1  ZINC000081577146   -0.1100
     21 C21        -7.6535   -1.5846   58.7099 C.ar    1  ZINC000081577146   -0.1100
     22 C22        -8.2902   -1.2007   57.5477 C.ar    1  ZINC000081577146   -0.0900
     23 O23        -9.6802   -0.2356   55.0860 O.3     1  ZINC000081577146   -0.2000
     24 C24        -9.0308    1.9005   52.4773 C.3     1  ZINC000081577146    0.0600
     25 C25        -7.9055    2.4056   51.5711 C.3     1  ZINC000081577146    0.0500
     26 N26        -4.5122    1.4338   50.8140 N.2     1  ZINC000081577146   -0.5400
     27 H27        -2.0852    0.8195   49.2190 H       1  ZINC000081577146    0.0900
     28 H28        -1.5975    2.4643   49.6933 H       1  ZINC000081577146    0.0900
     29 H29        -1.9133    1.2350   50.9413 H       1  ZINC000081577146    0.0900
     30 H30        -7.6867    0.2442   50.0239 H       1  ZINC000081577146    0.0700
     31 H31        -6.4913   -0.6000   51.0378 H       1  ZINC000081577146    0.1100
     32 H32        -8.8164   -1.3286   51.5579 H       1  ZINC000081577146    0.1000
     33 H33        -8.0493   -0.5333   52.9538 H       1  ZINC000081577146    0.0600
     34 H34       -11.8537    1.8716   52.3945 H       1  ZINC000081577146    0.0800
     35 H35       -12.1029    0.5406   51.2392 H       1  ZINC000081577146    0.0800
     36 H36       -12.7807    0.4323   52.8815 H       1  ZINC000081577146    0.0700
     37 H37       -10.7639    2.2112   56.8812 H       1  ZINC000081577146    0.1900
     38 H38        -9.7380    1.6570   58.6686 H       1  ZINC000081577146    0.1300
     39 H39        -8.6035    0.9476   60.7324 H       1  ZINC000081577146    0.1300
     40 H40        -7.2722   -1.1208   60.7611 H       1  ZINC000081577146    0.1300
     41 H41        -7.0669   -2.4913   58.7286 H       1  ZINC000081577146    0.1300
     42 H42        -8.1996   -1.8037   56.6564 H       1  ZINC000081577146    0.1300
     43 H43        -9.8482    2.6215   52.4783 H       1  ZINC000081577146    0.0900
     44 H44        -8.6528    1.7773   53.4922 H       1  ZINC000081577146    0.0500
     45 H45        -7.5232    3.3501   51.9582 H       1  ZINC000081577146    0.1000
     46 H46        -8.2902    2.5546   50.5623 H       1  ZINC000081577146    0.0800
@<TRIPOS>BOND
     1     1     2    1
     2     1    27    1
     3     1    28    1
     4     1    29    1
     5     2    26    1
     6     2     3    2
     7     3     4    1
     8     4     5    1
     9     5     6    1
    10     5    26    2
    11     6    25    1
    12     6     7    1
    13     7     8    1
    14     7    30    1
    15     7    31    1
    16     8     9    1
    17     8    32    1
    18     8    33    1
    19     9    10    1
    20     9    24    1
    21    10    11    1
    22    10    12    1
    23    10    13    1
    24    12    34    1
    25    12    35    1
    26    12    36    1
    27    13    23    1
    28    13    14    2
    29    14    15    1
    30    15    16    2
    31    15    37    1
    32    16    17    1
    33    16    23    1
    34    17    22   ar
    35    17    18   ar
    36    18    19   ar
    37    18    38    1
    38    19    20   ar
    39    19    39    1
    40    20    21   ar
    41    20    40    1
    42    21    22   ar
    43    21    41    1
    44    22    42    1
    45    24    25    1
    46    24    43    1
    47    24    44    1
    48    25    45    1
    49    25    46    1
@<TRIPOS>SUBSTRUCTURE
     1 ZINC000081577146        1 TEMP              0 ****  ****    0 ROOT


##########                                Name:    ZINC001707804910
##########                DOCK_Rotatable_Bonds:                   4
##########                         Heavy_Atoms:                  26
##########                    Molecular_Weight:             358.403
##########                DOCK_Rotatable_Bonds:                   4
##########                       Formal_Charge:          -0.0399996
##########                     HBond_Acceptors:                  10
##########                        HBond_Donors:                   0
##########                         Heavy_Atoms:                  26
##########                          Grid_Score:          -29.498537
##########                     Grid_vdw_energy:          -29.375263
##########                      Grid_es_energy:           -0.123274
##########           Internal_energy_repulsive:           10.800966

@<TRIPOS>MOLECULE
ZINC001707804910
 48 51 1 0 0
SMALL
USER_CHARGES


@<TRIPOS>ATOM
      1 C1        -12.0485   -0.4431   54.0143 C.3     1  ZINC001707804910   -0.0700
      2 C2        -10.8107    0.1962   53.4399 C.2     1  ZINC001707804910    0.0700
      3 N3         -9.9066   -0.4032   52.7084 N.2     1  ZINC001707804910   -0.2800
      4 N4         -8.9205    0.5346   52.3757 N.pl3   1  ZINC001707804910   -0.3700
      5 C5         -7.7265    0.2794   51.5662 C.3     1  ZINC001707804910    0.0900
      6 C6         -9.2649    1.7146   52.9324 C.2     1  ZINC001707804910    0.0500
      7 C7         -8.4907    3.0037   52.8328 C.3     1  ZINC001707804910    0.1800
      8 N8         -8.4155    3.4210   51.4306 N.pl3   1  ZINC001707804910   -0.4600
      9 C9         -9.4515    3.8142   50.6295 C.2     1  ZINC001707804910    0.1900
     10 C10       -10.9031    3.9016   51.0253 C.3     1  ZINC001707804910   -0.0700
     11 N11        -8.9512    4.1000   49.4610 N.2     1  ZINC001707804910   -0.2800
     12 N12        -7.6792    3.9155   49.4691 N.2     1  ZINC001707804910   -0.3000
     13 C13        -7.2961    3.5036   50.6546 C.2     1  ZINC001707804910    0.3500
     14 N14        -6.0005    3.2014   51.0426 N.3     1  ZINC001707804910   -0.4600
     15 C15        -5.3111    4.3954   51.5526 C.3     1  ZINC001707804910    0.0200
     16 C16        -3.9079    4.0053   52.0244 C.3     1  ZINC001707804910    0.0700
     17 O17        -3.2003    3.3920   50.9434 O.3     1  ZINC001707804910   -0.3600
     18 C18        -3.8433    2.2256   50.4226 C.3     1  ZINC001707804910    0.2000
     19 H19        -3.9186    1.4712   51.2058 H       1  ZINC001707804910    0.1000
     20 C20        -3.0381    1.6782   49.2723 C.2     1  ZINC001707804910    0.1600
     21 N21        -3.2042    1.9611   48.0116 N.2     1  ZINC001707804910   -0.2500
     22 N22        -2.3401    1.3141   47.3114 N.2     1  ZINC001707804910   -0.2900
     23 C23        -1.5934    0.5965   48.1017 C.2     1  ZINC001707804910    0.1700
     24 C24        -0.4624   -0.3071   47.6828 C.3     1  ZINC001707804910   -0.0600
     25 O25        -2.0136    0.8135   49.3594 O.3     1  ZINC001707804910   -0.2200
     26 C26        -5.2460    2.5976   49.9348 C.3     1  ZINC001707804910    0.0400
     27 C27       -10.4328    1.5344   53.5917 C.2     1  ZINC001707804910   -0.2300
     28 H28       -12.8680   -0.3535   53.3013 H       1  ZINC001707804910    0.0800
     29 H29       -11.8540   -1.4969   54.2139 H       1  ZINC001707804910    0.0700
     30 H30       -12.3188    0.0587   54.9435 H       1  ZINC001707804910    0.0800
     31 H31        -7.9800    0.3601   50.5091 H       1  ZINC001707804910    0.0800
     32 H32        -6.9574    1.0115   51.8123 H       1  ZINC001707804910    0.0900
     33 H33        -7.3536   -0.7234   51.7748 H       1  ZINC001707804910    0.0900
     34 H34        -8.9938    3.7756   53.4152 H       1  ZINC001707804910    0.1100
     35 H35        -7.4836    2.8536   53.2218 H       1  ZINC001707804910    0.1200
     36 H36       -11.0893    4.8578   51.5145 H       1  ZINC001707804910    0.0900
     37 H37       -11.5277    3.8209   50.1357 H       1  ZINC001707804910    0.1000
     38 H38       -11.1420    3.0895   51.7119 H       1  ZINC001707804910    0.0700
     39 H39        -5.2349    5.1386   50.7590 H       1  ZINC001707804910    0.0700
     40 H40        -5.8737    4.8112   52.3886 H       1  ZINC001707804910    0.0900
     41 H41        -3.3725    4.8972   52.3503 H       1  ZINC001707804910    0.1200
     42 H42        -3.9849    3.3028   52.8541 H       1  ZINC001707804910    0.0700
     43 H43         0.4692    0.2588   47.6703 H       1  ZINC001707804910    0.1000
     44 H44        -0.3764   -1.1330   48.3888 H       1  ZINC001707804910    0.1000
     45 H45        -0.6618   -0.7005   46.6860 H       1  ZINC001707804910    0.1100
     46 H46        -5.7610    1.7010   49.5896 H       1  ZINC001707804910    0.1000
     47 H47        -5.1687    3.3119   49.1151 H       1  ZINC001707804910    0.0800
     48 H48       -10.9743    2.2888   54.1430 H       1  ZINC001707804910    0.1500
@<TRIPOS>BOND
     1     1     2    1
     2     1    28    1
     3     1    29    1
     4     1    30    1
     5     2    27    1
     6     2     3    2
     7     3     4    1
     8     4     5    1
     9     4     6    1
    10     5    31    1
    11     5    32    1
    12     5    33    1
    13     6     7    1
    14     6    27    2
    15     7     8    1
    16     7    34    1
    17     7    35    1
    18     8    13    1
    19     8     9    1
    20     9    10    1
    21     9    11    2
    22    10    36    1
    23    10    37    1
    24    10    38    1
    25    11    12    1
    26    12    13    2
    27    13    14    1
    28    14    26    1
    29    14    15    1
    30    15    16    1
    31    15    39    1
    32    15    40    1
    33    16    17    1
    34    16    41    1
    35    16    42    1
    36    17    18    1
    37    18    19    1
    38    18    20    1
    39    18    26    1
    40    20    25    1
    41    20    21    2
    42    21    22    1
    43    22    23    2
    44    23    24    1
    45    23    25    1
    46    24    43    1
    47    24    44    1
    48    24    45    1
    49    26    46    1
    50    26    47    1
    51    27    48    1
@<TRIPOS>SUBSTRUCTURE
     1 ZINC001707804910        1 TEMP              0 ****  ****    0 ROOT


##########                                Name:    ZINC000898967786
##########                DOCK_Rotatable_Bonds:                   5
##########                         Heavy_Atoms:                  25
##########                    Molecular_Weight:             356.448
##########                DOCK_Rotatable_Bonds:                   5
##########                       Formal_Charge:        -2.38419e-07
##########                     HBond_Acceptors:                   7
##########                        HBond_Donors:                   1
##########                         Heavy_Atoms:                  25
##########                          Grid_Score:          -29.497976
##########                     Grid_vdw_energy:          -28.841928
##########                      Grid_es_energy:           -0.656048
##########           Internal_energy_repulsive:           12.911159

@<TRIPOS>MOLECULE
ZINC000898967786
 45 48 1 0 0
SMALL
USER_CHARGES


@<TRIPOS>ATOM
      1 C1        -12.6083   -3.0192   57.3338 C.3     1  ZINC000898967786   -0.0800
      2 C2        -11.1375   -3.0618   57.6599 C.2     1  ZINC000898967786    0.0900
      3 C3        -10.3646   -1.9937   57.9556 C.2     1  ZINC000898967786   -0.1000
      4 C4        -10.8118   -0.5561   58.0187 C.3     1  ZINC000898967786    0.2200
      5 N5        -11.0452   -0.0572   56.6612 N.am    1  ZINC000898967786   -0.7400
      6 C6        -10.0146    0.4081   55.9277 C.2     1  ZINC000898967786    0.7100
      7 O7         -8.8912    0.4137   56.3927 O.2     1  ZINC000898967786   -0.5800
      8 N8        -10.2294    0.8670   54.6788 N.am    1  ZINC000898967786   -0.6300
      9 C9        -11.5800    0.8700   54.0948 C.3     1  ZINC000898967786    0.0900
     10 C10       -11.5115    0.2063   52.7147 C.3     1  ZINC000898967786    0.0500
     11 O11       -10.4843    0.8319   51.9419 O.3     1  ZINC000898967786   -0.3700
     12 C12        -9.1716    0.6916   52.4905 C.3     1  ZINC000898967786    0.1400
     13 H13        -8.9367   -0.3665   52.6063 H       1  ZINC000898967786    0.0700
     14 C14        -8.1686    1.3318   51.5658 C.2     1  ZINC000898967786   -0.1100
     15 C15        -7.4894    0.6367   50.6521 C.2     1  ZINC000898967786   -0.1800
     16 S16        -6.4189    1.7151   49.7664 S.3     1  ZINC000898967786    0.1100
     17 C17        -6.9702    3.0900   50.7148 C.2     1  ZINC000898967786   -0.2100
     18 C18        -7.8864    2.6866   51.5965 C.2     1  ZINC000898967786   -0.1300
     19 C19        -9.1211    1.3854   53.8612 C.3     1  ZINC000898967786    0.0900
     20 N20        -9.1000   -2.4619   58.1876 N.pl3   1  ZINC000898967786   -0.3500
     21 C21        -7.9319   -1.8399   58.5213 C.2     1  ZINC000898967786    0.0600
     22 C22        -6.7992   -2.5525   58.6953 C.2     1  ZINC000898967786   -0.1400
     23 C23        -6.8079   -3.9480   58.5342 C.2     1  ZINC000898967786   -0.1000
     24 C24        -7.9653   -4.5805   58.2016 C.2     1  ZINC000898967786   -0.0800
     25 C25        -9.1400   -3.8224   58.0239 C.2     1  ZINC000898967786    0.2400
     26 N26       -10.3825   -4.1616   57.7103 N.2     1  ZINC000898967786   -0.4900
     27 H27       -13.1870   -3.1176   58.2523 H       1  ZINC000898967786    0.0800
     28 H28       -12.8467   -2.0700   56.8540 H       1  ZINC000898967786    0.0700
     29 H29       -12.8547   -3.8393   56.6595 H       1  ZINC000898967786    0.0800
     30 H30       -11.7347   -0.4875   58.5947 H       1  ZINC000898967786    0.1000
     31 H31       -10.0387    0.0442   58.4984 H       1  ZINC000898967786    0.0700
     32 H32       -11.9414   -0.0617   56.2902 H       1  ZINC000898967786    0.4000
     33 H33       -12.2593    0.3105   54.7379 H       1  ZINC000898967786    0.1100
     34 H34       -11.9330    1.8961   53.9916 H       1  ZINC000898967786    0.0800
     35 H35       -11.2850   -0.8536   52.8313 H       1  ZINC000898967786    0.0600
     36 H36       -12.4696    0.3209   52.2076 H       1  ZINC000898967786    0.1100
     37 H37        -7.5822   -0.4258   50.4824 H       1  ZINC000898967786    0.1700
     38 H38        -6.6236    4.1061   50.5980 H       1  ZINC000898967786    0.1700
     39 H39        -8.3656    3.3642   52.2874 H       1  ZINC000898967786    0.1400
     40 H40        -9.2261    2.4625   53.7315 H       1  ZINC000898967786    0.0800
     41 H41        -8.1721    1.1647   54.3497 H       1  ZINC000898967786    0.0900
     42 H42        -7.9140   -0.7674   58.6470 H       1  ZINC000898967786    0.1600
     43 H43        -5.8817   -2.0477   58.9594 H       1  ZINC000898967786    0.1500
     44 H44        -5.8999   -4.5158   58.6733 H       1  ZINC000898967786    0.1500
     45 H45        -7.9838   -5.6529   58.0748 H       1  ZINC000898967786    0.1500
@<TRIPOS>BOND
     1     1     2    1
     2     1    27    1
     3     1    28    1
     4     1    29    1
     5     2    26    1
     6     2     3    2
     7     3     4    1
     8     3    20    1
     9     4     5    1
    10     4    30    1
    11     4    31    1
    12     5     6   am
    13     5    32    1
    14     6     7    2
    15     6     8   am
    16     8    19    1
    17     8     9    1
    18     9    10    1
    19     9    33    1
    20     9    34    1
    21    10    11    1
    22    10    35    1
    23    10    36    1
    24    11    12    1
    25    12    13    1
    26    12    14    1
    27    12    19    1
    28    14    18    1
    29    14    15    2
    30    15    16    1
    31    15    37    1
    32    16    17    1
    33    17    18    2
    34    17    38    1
    35    18    39    1
    36    19    40    1
    37    19    41    1
    38    20    25    1
    39    20    21    1
    40    21    22    2
    41    21    42    1
    42    22    23    1
    43    22    43    1
    44    23    24    2
    45    23    44    1
    46    24    25    1
    47    24    45    1
    48    25    26    2
@<TRIPOS>SUBSTRUCTURE
     1 ZINC000898967786        1 TEMP              0 ****  ****    0 ROOT


##########                                Name:    ZINC000937331732
##########                DOCK_Rotatable_Bonds:                   6
##########                         Heavy_Atoms:                  24
##########                    Molecular_Weight:              333.35
##########                DOCK_Rotatable_Bonds:                   6
##########                       Formal_Charge:          -0.0299999
##########                     HBond_Acceptors:                  10
##########                        HBond_Donors:                   1
##########                         Heavy_Atoms:                  24
##########                          Grid_Score:          -29.467505
##########                     Grid_vdw_energy:          -27.435474
##########                      Grid_es_energy:           -2.032029
##########           Internal_energy_repulsive:           29.366989

@<TRIPOS>MOLECULE
ZINC000937331732
 43 45 1 0 0
SMALL
USER_CHARGES


@<TRIPOS>ATOM
      1 C1         -9.1299    1.7378   58.8120 C.3     1  ZINC000937331732    0.0600
      2 N2         -8.5042    0.4760   59.2156 N.am    1  ZINC000937331732   -0.6100
      3 C3         -7.7404   -0.2074   58.3405 C.2     1  ZINC000937331732    0.5000
      4 O4         -7.5722    0.2213   57.2185 O.2     1  ZINC000937331732   -0.5200
      5 C5         -7.0952   -1.5044   58.7560 C.3     1  ZINC000937331732    0.1500
      6 N6         -8.0070   -2.6158   58.4736 N.am    1  ZINC000937331732   -0.4400
      7 N7         -9.3770   -2.5162   58.1948 N.2     1  ZINC000937331732   -0.2800
      8 C8         -9.8364   -3.7102   58.0005 C.2     1  ZINC000937331732    0.2600
      9 N9         -8.8079   -4.6096   58.1420 N.am    1  ZINC000937331732   -0.5600
     10 C10        -8.9145   -6.0637   57.9999 C.3     1  ZINC000937331732    0.1000
     11 C11        -7.6823   -3.9249   58.4281 C.2     1  ZINC000937331732    0.6500
     12 O12        -6.5773   -4.4009   58.6183 O.2     1  ZINC000937331732   -0.5500
     13 C13        -8.7088   -0.0427   60.5703 C.3     1  ZINC000937331732    0.1300
     14 H14        -8.4978   -1.1114   60.6085 H       1  ZINC000937331732    0.1200
     15 C15        -7.8300    0.7272   61.5914 C.3     1  ZINC000937331732   -0.1500
     16 C16        -8.6437    0.5499   62.8977 C.3     1  ZINC000937331732    0.1000
     17 N17       -10.0545    0.6246   62.4766 N.am    1  ZINC000937331732   -0.6000
     18 C18       -11.0913    0.9765   63.2625 C.2     1  ZINC000937331732    0.6200
     19 O19       -12.2183    1.0028   62.8068 O.2     1  ZINC000937331732   -0.5400
     20 C20       -10.8589    1.3298   64.6748 C.2     1  ZINC000937331732    0.1400
     21 N21       -11.7820    1.6877   65.5420 N.2     1  ZINC000937331732   -0.4400
     22 C22       -11.2051    1.9301   66.7167 C.2     1  ZINC000937331732   -0.0300
     23 C23        -9.8721    1.7187   66.5894 C.2     1  ZINC000937331732   -0.0200
     24 N24        -9.6488    1.3364   65.3098 N.pl3   1  ZINC000937331732   -0.5200
     25 C25       -10.1447    0.2481   61.0552 C.3     1  ZINC000937331732    0.1000
     26 H26       -10.1144    1.5364   58.3898 H       1  ZINC000937331732    0.0700
     27 H27        -9.2334    2.3865   59.6819 H       1  ZINC000937331732    0.0800
     28 H28        -8.5074    2.2292   58.0643 H       1  ZINC000937331732    0.0800
     29 H29        -6.1687   -1.6441   58.1991 H       1  ZINC000937331732    0.1300
     30 H30        -6.8767   -1.4760   59.8234 H       1  ZINC000937331732    0.1300
     31 H31       -10.8609   -3.9590   57.7658 H       1  ZINC000937331732    0.2300
     32 H32        -9.9441   -6.3311   57.7623 H       1  ZINC000937331732    0.1000
     33 H33        -8.2576   -6.3995   57.1974 H       1  ZINC000937331732    0.0800
     34 H34        -8.6211   -6.5426   58.9340 H       1  ZINC000937331732    0.0800
     35 H35        -6.8440    0.2710   61.6803 H       1  ZINC000937331732    0.0900
     36 H36        -7.7489    1.7800   61.3214 H       1  ZINC000937331732    0.0800
     37 H37        -8.4328   -0.4205   63.3472 H       1  ZINC000937331732    0.0800
     38 H38        -8.4142    1.3519   63.5992 H       1  ZINC000937331732    0.1100
     39 H39       -11.7124    2.2419   67.6177 H       1  ZINC000937331732    0.1800
     40 H40        -9.1282    1.8307   67.3642 H       1  ZINC000937331732    0.1900
     41 H41        -8.7904    1.1144   64.9163 H       1  ZINC000937331732    0.4300
     42 H42       -10.5683    1.0713   60.4798 H       1  ZINC000937331732    0.0800
     43 H43       -10.7654   -0.6412   60.9460 H       1  ZINC000937331732    0.0800
@<TRIPOS>BOND
     1     1     2    1
     2     1    26    1
     3     1    27    1
     4     1    28    1
     5     2     3   am
     6     2    13    1
     7     3     4    2
     8     3     5    1
     9     5     6    1
    10     5    29    1
    11     5    30    1
    12     6    11   am
    13     6     7    1
    14     7     8    2
    15     8     9    1
    16     8    31    1
    17     9    10    1
    18     9    11   am
    19    10    32    1
    20    10    33    1
    21    10    34    1
    22    11    12    2
    23    13    14    1
    24    13    25    1
    25    13    15    1
    26    15    16    1
    27    15    35    1
    28    15    36    1
    29    16    17    1
    30    16    37    1
    31    16    38    1
    32    17    18   am
    33    17    25    1
    34    18    19    2
    35    18    20    1
    36    20    24    1
    37    20    21    2
    38    21    22    1
    39    22    23    2
    40    22    39    1
    41    23    24    1
    42    23    40    1
    43    24    41    1
    44    25    42    1
    45    25    43    1
@<TRIPOS>SUBSTRUCTURE
     1 ZINC000937331732        1 TEMP              0 ****  ****    0 ROOT


##########                                Name:    ZINC000129637895
##########                DOCK_Rotatable_Bonds:                   7
##########                         Heavy_Atoms:                  26
##########                    Molecular_Weight:             374.464
##########                DOCK_Rotatable_Bonds:                   7
##########                       Formal_Charge:        -5.51343e-07
##########                     HBond_Acceptors:                   8
##########                        HBond_Donors:                   1
##########                         Heavy_Atoms:                  26
##########                          Grid_Score:          -29.466953
##########                     Grid_vdw_energy:          -28.587234
##########                      Grid_es_energy:           -0.879719
##########           Internal_energy_repulsive:           19.804623

@<TRIPOS>MOLECULE
ZINC000129637895
 48 50 1 0 0
SMALL
USER_CHARGES


@<TRIPOS>ATOM
      1 C1          0.6409    1.6808   49.3536 C.3     1  ZINC000129637895   -0.1500
      2 C2         -0.2347    0.5722   48.7661 C.3     1  ZINC000129637895   -0.0500
      3 C3         -1.2173    1.1708   47.7929 C.2     1  ZINC000129637895    0.0300
      4 C4         -2.3403    1.7999   48.1837 C.2     1  ZINC000129637895   -0.0200
      5 N5         -2.7584    1.9916   49.4998 N.am    1  ZINC000129637895   -0.5900
      6 C6         -3.6839    2.9296   49.7830 C.2     1  ZINC000129637895    0.5000
      7 O7         -4.1545    3.6066   48.8917 O.2     1  ZINC000129637895   -0.4800
      8 C8         -4.1302    3.1361   51.1922 C.2     1  ZINC000129637895    0.5200
      9 O9         -3.6945    4.0679   51.8364 O.2     1  ZINC000129637895   -0.5100
     10 N10        -5.0170    2.2878   51.7494 N.am    1  ZINC000129637895   -0.5800
     11 C11        -5.4747    2.4766   53.1343 C.3     1  ZINC000129637895    0.0800
     12 C12        -7.0067    2.4489   53.1488 C.3     1  ZINC000129637895    0.0400
     13 N13        -7.4772    1.2169   52.5016 N.3     1  ZINC000129637895   -0.4900
     14 C14        -8.8599    1.0757   52.6393 C.ar    1  ZINC000129637895    0.1500
     15 C15        -9.7182    1.8941   51.9155 C.ar    1  ZINC000129637895   -0.2100
     16 C16       -11.0859    1.7539   52.0516 C.ar    1  ZINC000129637895   -0.0500
     17 C17       -11.6036    0.8006   52.9075 C.ar    1  ZINC000129637895   -0.2300
     18 C18       -10.7509   -0.0198   53.6332 C.ar    1  ZINC000129637895    0.1500
     19 O19       -11.2618   -0.9571   54.4742 O.3     1  ZINC000129637895   -0.3200
     20 C20       -11.8153   -0.4907   55.7062 C.3     1  ZINC000129637895    0.0300
     21 C21        -9.3785    0.1137   53.4954 C.ar    1  ZINC000129637895   -0.1700
     22 C22        -7.0818    1.1734   51.0876 C.3     1  ZINC000129637895    0.0400
     23 C23        -5.5575    1.1523   50.9866 C.3     1  ZINC000129637895    0.1100
     24 S24        -3.1883    2.3395   46.7365 S.3     1  ZINC000129637895    0.2400
     25 C25        -1.9588    1.6711   45.7547 C.2     1  ZINC000129637895   -0.0300
     26 N26        -1.0468    1.1274   46.4869 N.2     1  ZINC000129637895   -0.4500
     27 H27         1.1832    2.1796   48.5503 H       1  ZINC000129637895    0.0600
     28 H28         0.0119    2.4047   49.8716 H       1  ZINC000129637895    0.0500
     29 H29         1.3517    1.2477   50.0575 H       1  ZINC000129637895    0.0700
     30 H30         0.3944   -0.1518   48.2482 H       1  ZINC000129637895    0.0900
     31 H31        -0.7770    0.0733   49.5694 H       1  ZINC000129637895    0.0700
     32 H32        -2.3833    1.4500   50.2117 H       1  ZINC000129637895    0.4300
     33 H33        -5.0880    1.6726   53.7605 H       1  ZINC000129637895    0.0900
     34 H34        -5.1223    3.4378   53.5087 H       1  ZINC000129637895    0.1400
     35 H35        -7.3613    2.4767   54.1791 H       1  ZINC000129637895    0.1000
     36 H36        -7.3913    3.3136   52.6080 H       1  ZINC000129637895    0.0500
     37 H37        -9.3161    2.6404   51.2465 H       1  ZINC000129637895    0.1300
     38 H38       -11.7516    2.3908   51.4882 H       1  ZINC000129637895    0.1300
     39 H39       -12.6732    0.6940   53.0122 H       1  ZINC000129637895    0.1300
     40 H40       -11.0449    0.0268   56.2778 H       1  ZINC000129637895    0.0600
     41 H41       -12.6364    0.1955   55.4989 H       1  ZINC000129637895    0.0600
     42 H42       -12.1868   -1.3386   56.2817 H       1  ZINC000129637895    0.1000
     43 H43        -8.7136   -0.5240   54.0590 H       1  ZINC000129637895    0.1300
     44 H44        -7.4909    0.2762   50.6230 H       1  ZINC000129637895    0.1000
     45 H45        -7.4653    2.0558   50.5753 H       1  ZINC000129637895    0.0500
     46 H46        -5.2586    1.2356   49.9417 H       1  ZINC000129637895    0.1100
     47 H47        -5.1755    0.2219   51.4065 H       1  ZINC000129637895    0.0900
     48 H48        -1.9453    1.7034   44.6753 H       1  ZINC000129637895    0.2000
@<TRIPOS>BOND
     1     1     2    1
     2     1    27    1
     3     1    28    1
     4     1    29    1
     5     2     3    1
     6     2    30    1
     7     2    31    1
     8     3    26    1
     9     3     4    2
    10     4     5    1
    11     4    24    1
    12     5     6   am
    13     5    32    1
    14     6     7    2
    15     6     8    1
    16     8     9    2
    17     8    10   am
    18    10    23    1
    19    10    11    1
    20    11    12    1
    21    11    33    1
    22    11    34    1
    23    12    13    1
    24    12    35    1
    25    12    36    1
    26    13    14    1
    27    13    22    1
    28    14    21   ar
    29    14    15   ar
    30    15    16   ar
    31    15    37    1
    32    16    17   ar
    33    16    38    1
    34    17    18   ar
    35    17    39    1
    36    18    19    1
    37    18    21   ar
    38    19    20    1
    39    20    40    1
    40    20    41    1
    41    20    42    1
    42    21    43    1
    43    22    23    1
    44    22    44    1
    45    22    45    1
    46    23    46    1
    47    23    47    1
    48    24    25    1
    49    25    26    2
    50    25    48    1
@<TRIPOS>SUBSTRUCTURE
     1 ZINC000129637895        1 TEMP              0 ****  ****    0 ROOT


##########                                Name:    ZINC000967287417
##########                DOCK_Rotatable_Bonds:                   7
##########                         Heavy_Atoms:                  25
##########                    Molecular_Weight:             347.414
##########                DOCK_Rotatable_Bonds:                   7
##########                       Formal_Charge:          -0.0200002
##########                     HBond_Acceptors:                   7
##########                        HBond_Donors:                   1
##########                         Heavy_Atoms:                  25
##########                          Grid_Score:          -29.466015
##########                     Grid_vdw_energy:          -30.884109
##########                      Grid_es_energy:            1.418095
##########           Internal_energy_repulsive:            7.928057

@<TRIPOS>MOLECULE
ZINC000967287417
 50 52 1 0 0
SMALL
USER_CHARGES


@<TRIPOS>ATOM
      1 C1         -7.2876   -0.0420   66.2012 C.3     1  ZINC000967287417    0.0300
      2 O2         -8.6706   -0.2509   65.9081 O.3     1  ZINC000967287417   -0.3900
      3 C3         -9.3063    0.8642   65.2800 C.3     1  ZINC000967287417    0.1400
      4 C4         -9.4995    0.5721   63.8142 C.2     1  ZINC000967287417    0.0100
      5 C5        -10.6098    0.8504   63.0961 C.2     1  ZINC000967287417   -0.1900
      6 C6        -10.3711    0.4182   61.7821 C.2     1  ZINC000967287417   -0.1200
      7 C7         -9.1115   -0.1086   61.7649 C.2     1  ZINC000967287417   -0.0700
      8 C8         -8.4343   -0.6851   60.5988 C.2     1  ZINC000967287417    0.6100
      9 O9         -7.3320   -1.1859   60.7213 O.2     1  ZINC000967287417   -0.5200
     10 N10        -9.0327   -0.6602   59.3914 N.am    1  ZINC000967287417   -0.7000
     11 C11        -8.3570   -1.2377   58.2269 C.3     1  ZINC000967287417    0.1600
     12 H12        -7.3329   -1.4997   58.4932 H       1  ZINC000967287417    0.1000
     13 C13        -9.1042   -2.4939   57.7735 C.3     1  ZINC000967287417    0.0400
     14 N14       -10.4779   -2.1381   57.3955 N.3     1  ZINC000967287417   -0.5300
     15 C15       -11.2665   -3.3385   57.0869 C.3     1  ZINC000967287417    0.1300
     16 C16       -12.6853   -3.1414   57.5552 C.2     1  ZINC000967287417    0.0200
     17 N17       -13.1169   -3.2002   58.7819 N.2     1  ZINC000967287417   -0.3500
     18 O18       -14.3075   -2.9983   58.8452 O.3     1  ZINC000967287417    0.1000
     19 C19       -14.8341   -2.7731   57.6334 C.2     1  ZINC000967287417   -0.0300
     20 C20       -16.2791   -2.4845   57.3170 C.3     1  ZINC000967287417   -0.0800
     21 C21       -13.8103   -2.8500   56.7500 C.2     1  ZINC000967287417   -0.2400
     22 C22       -10.4916   -1.1955   56.2696 C.3     1  ZINC000967287417    0.0500
     23 C23        -9.7857    0.0994   56.6781 C.3     1  ZINC000967287417   -0.1100
     24 C24        -8.3432   -0.2171   57.0856 C.3     1  ZINC000967287417   -0.1000
     25 H25        -7.8064   -0.6319   56.2324 H       1  ZINC000967287417    0.0900
     26 C26        -7.6504    1.0652   57.5514 C.3     1  ZINC000967287417   -0.1500
     27 O27        -8.5969   -0.0008   63.0074 O.3     1  ZINC000967287417   -0.1600
     28 H28        -7.1833    0.8088   66.8745 H       1  ZINC000967287417    0.0500
     29 H29        -6.8782   -0.9336   66.6764 H       1  ZINC000967287417    0.0900
     30 H30        -6.7463    0.1579   65.2765 H       1  ZINC000967287417    0.0500
     31 H31       -10.2756    1.0399   65.7463 H       1  ZINC000967287417    0.0900
     32 H32        -8.6819    1.7503   65.3946 H       1  ZINC000967287417    0.0700
     33 H33       -11.5114    1.3176   63.4639 H       1  ZINC000967287417    0.1600
     34 H34       -11.0519    0.4886   60.9466 H       1  ZINC000967287417    0.1600
     35 H35        -9.9108   -0.2599   59.2935 H       1  ZINC000967287417    0.4100
     36 H36        -8.5931   -2.9308   56.9156 H       1  ZINC000967287417    0.0500
     37 H37        -9.1276   -3.2168   58.5890 H       1  ZINC000967287417    0.0900
     38 H38       -11.2598   -3.5109   56.0107 H       1  ZINC000967287417    0.0600
     39 H39       -10.8324   -4.1992   57.5955 H       1  ZINC000967287417    0.0900
     40 H40       -16.8598   -2.4838   58.2394 H       1  ZINC000967287417    0.0800
     41 H41       -16.3581   -1.5090   56.8372 H       1  ZINC000967287417    0.0900
     42 H42       -16.6642   -3.2520   56.6457 H       1  ZINC000967287417    0.0900
     43 H43       -13.8461   -2.7245   55.6778 H       1  ZINC000967287417    0.1700
     44 H44        -9.9740   -1.6385   55.4188 H       1  ZINC000967287417    0.0400
     45 H45       -11.5227   -0.9754   55.9927 H       1  ZINC000967287417    0.0800
     46 H46        -9.7823    0.7929   55.8372 H       1  ZINC000967287417    0.0700
     47 H47       -10.3110    0.5502   57.5201 H       1  ZINC000967287417    0.0700
     48 H48        -8.1866    1.4779   58.4059 H       1  ZINC000967287417    0.0600
     49 H49        -6.6243    0.8390   57.8410 H       1  ZINC000967287417    0.0600
     50 H50        -7.6469    1.7919   56.7390 H       1  ZINC000967287417    0.0600
@<TRIPOS>BOND
     1     1     2    1
     2     1    28    1
     3     1    29    1
     4     1    30    1
     5     2     3    1
     6     3     4    1
     7     3    31    1
     8     3    32    1
     9     4    27    1
    10     4     5    2
    11     5     6    1
    12     5    33    1
    13     6     7    2
    14     6    34    1
    15     7     8    1
    16     7    27    1
    17     8     9    2
    18     8    10   am
    19    10    11    1
    20    10    35    1
    21    11    12    1
    22    11    24    1
    23    11    13    1
    24    13    14    1
    25    13    36    1
    26    13    37    1
    27    14    15    1
    28    14    22    1
    29    15    16    1
    30    15    38    1
    31    15    39    1
    32    16    21    1
    33    16    17    2
    34    17    18    1
    35    18    19    1
    36    19    20    1
    37    19    21    2
    38    20    40    1
    39    20    41    1
    40    20    42    1
    41    21    43    1
    42    22    23    1
    43    22    44    1
    44    22    45    1
    45    23    24    1
    46    23    46    1
    47    23    47    1
    48    24    25    1
    49    24    26    1
    50    26    48    1
    51    26    49    1
    52    26    50    1
@<TRIPOS>SUBSTRUCTURE
     1 ZINC000967287417        1 TEMP              0 ****  ****    0 ROOT


##########                                Name:    ZINC000469391664
##########                DOCK_Rotatable_Bonds:                   6
##########                         Heavy_Atoms:                  29
##########                    Molecular_Weight:             408.524
##########                DOCK_Rotatable_Bonds:                   6
##########                       Formal_Charge:         -0.00999999
##########                     HBond_Acceptors:                   7
##########                        HBond_Donors:                   0
##########                         Heavy_Atoms:                  29
##########                          Grid_Score:          -29.465672
##########                     Grid_vdw_energy:          -26.336592
##########                      Grid_es_energy:           -3.129079
##########           Internal_energy_repulsive:           19.955343

@<TRIPOS>MOLECULE
ZINC000469391664
 53 56 1 0 0
SMALL
USER_CHARGES


@<TRIPOS>ATOM
      1 C1         -9.5527    3.1325   64.7449 C.3     1  ZINC000469391664   -0.1500
      2 C2         -9.3297    2.3290   63.4621 C.3     1  ZINC000469391664   -0.1000
      3 H3         -8.2983    2.4515   63.1316 H       1  ZINC000469391664    0.0800
      4 C4        -10.2779    2.8347   62.3724 C.3     1  ZINC000469391664   -0.1300
      5 C5        -10.0279    2.0514   61.0799 C.3     1  ZINC000469391664    0.1100
      6 N6        -10.1488    0.6153   61.3662 N.am    1  ZINC000469391664   -0.6100
      7 C7        -10.9786   -0.1617   60.6423 C.2     1  ZINC000469391664    0.5600
      8 O8        -11.0698   -1.3489   60.8891 O.2     1  ZINC000469391664   -0.5000
      9 C9        -11.7761    0.4280   59.5506 C.ar    1  ZINC000469391664   -0.1100
     10 C10       -12.8489    1.2735   59.8418 C.ar    1  ZINC000469391664   -0.0900
     11 C11       -13.5900    1.8218   58.8171 C.ar    1  ZINC000469391664   -0.1000
     12 C12       -13.2769    1.5382   57.4977 C.ar    1  ZINC000469391664   -0.0900
     13 C13       -12.2199    0.7038   57.1941 C.ar    1  ZINC000469391664   -0.1000
     14 C14       -11.4581    0.1473   58.2129 C.ar    1  ZINC000469391664    0.1500
     15 N15       -10.3919   -0.6941   57.9092 N.am    1  ZINC000469391664   -0.5800
     16 C16        -9.0324   -0.1543   57.8295 C.3     1  ZINC000469391664    0.0900
     17 C17       -10.6103   -2.0057   57.6885 C.2     1  ZINC000469391664    0.6100
     18 O18        -9.6779   -2.7415   57.4231 O.2     1  ZINC000469391664   -0.5200
     19 C19       -11.9701   -2.5455   57.7682 C.2     1  ZINC000469391664   -0.2600
     20 C20       -12.5185   -3.1548   58.8621 C.2     1  ZINC000469391664   -0.0500
     21 C21       -13.8145   -3.5669   58.6619 C.2     1  ZINC000469391664   -0.1500
     22 C22       -14.3123   -3.3056   57.4475 C.2     1  ZINC000469391664   -0.2600
     23 S23       -13.1605   -2.5069   56.4748 S.3     1  ZINC000469391664    0.2300
     24 C24        -9.3478    0.0425   62.4565 C.3     1  ZINC000469391664    0.1000
     25 C25        -9.6057    0.8483   63.7336 C.3     1  ZINC000469391664    0.1300
     26 H26       -10.6440    0.7217   64.0402 H       1  ZINC000469391664    0.1000
     27 N27        -8.7197    0.3729   64.7991 N.pl3   1  ZINC000469391664   -0.4500
     28 C28        -7.3531    0.3118   64.7522 C.2     1  ZINC000469391664   -0.0500
     29 C29        -6.9444   -0.1821   65.9366 C.2     1  ZINC000469391664   -0.0300
     30 N30        -8.0317   -0.4161   66.6861 N.2     1  ZINC000469391664   -0.4900
     31 C31        -9.0985   -0.0812   66.0132 C.2     1  ZINC000469391664    0.1800
     32 H32        -8.8771    2.7729   65.5210 H       1  ZINC000469391664    0.0600
     33 H33        -9.3557    4.1871   64.5519 H       1  ZINC000469391664    0.0600
     34 H34       -10.5840    3.0102   65.0756 H       1  ZINC000469391664    0.0600
     35 H35       -11.3098    2.6894   62.6920 H       1  ZINC000469391664    0.0700
     36 H36       -10.0970    3.8949   62.1960 H       1  ZINC000469391664    0.0900
     37 H37       -10.7657    2.3379   60.3305 H       1  ZINC000469391664    0.1000
     38 H38        -9.0255    2.2670   60.7100 H       1  ZINC000469391664    0.0800
     39 H39       -13.0975    1.4972   60.8686 H       1  ZINC000469391664    0.1400
     40 H40       -14.4191    2.4755   59.0439 H       1  ZINC000469391664    0.1400
     41 H41       -13.8638    1.9723   56.7017 H       1  ZINC000469391664    0.1400
     42 H42       -11.9824    0.4873   56.1631 H       1  ZINC000469391664    0.1400
     43 H43        -8.5297   -0.2928   58.7867 H       1  ZINC000469391664    0.0600
     44 H44        -8.4789   -0.6772   57.0495 H       1  ZINC000469391664    0.0900
     45 H45        -9.0769    0.9087   57.5929 H       1  ZINC000469391664    0.0700
     46 H46       -11.9865   -3.2983   59.7909 H       1  ZINC000469391664    0.1500
     47 H47       -14.3889   -4.0656   59.4287 H       1  ZINC000469391664    0.1400
     48 H48       -15.3113   -3.5624   57.1274 H       1  ZINC000469391664    0.1600
     49 H49        -9.6367   -0.9964   62.6154 H       1  ZINC000469391664    0.1000
     50 H50        -8.2899    0.0943   62.1989 H       1  ZINC000469391664    0.0800
     51 H51        -6.7237    0.6031   63.9244 H       1  ZINC000469391664    0.1700
     52 H52        -5.9204   -0.3588   66.2311 H       1  ZINC000469391664    0.1700
     53 H53       -10.1161   -0.1605   66.3663 H       1  ZINC000469391664    0.2000
@<TRIPOS>BOND
     1     1     2    1
     2     1    32    1
     3     1    33    1
     4     1    34    1
     5     2     3    1
     6     2    25    1
     7     2     4    1
     8     4     5    1
     9     4    35    1
    10     4    36    1
    11     5     6    1
    12     5    37    1
    13     5    38    1
    14     6     7   am
    15     6    24    1
    16     7     8    2
    17     7     9    1
    18     9    14   ar
    19     9    10   ar
    20    10    11   ar
    21    10    39    1
    22    11    12   ar
    23    11    40    1
    24    12    13   ar
    25    12    41    1
    26    13    14   ar
    27    13    42    1
    28    14    15    1
    29    15    16    1
    30    15    17   am
    31    16    43    1
    32    16    44    1
    33    16    45    1
    34    17    18    2
    35    17    19    1
    36    19    23    1
    37    19    20    2
    38    20    21    1
    39    20    46    1
    40    21    22    2
    41    21    47    1
    42    22    23    1
    43    22    48    1
    44    24    25    1
    45    24    49    1
    46    24    50    1
    47    25    26    1
    48    25    27    1
    49    27    31    1
    50    27    28    1
    51    28    29    2
    52    28    51    1
    53    29    30    1
    54    29    52    1
    55    30    31    2
    56    31    53    1
@<TRIPOS>SUBSTRUCTURE
     1 ZINC000469391664        1 TEMP              0 ****  ****    0 ROOT


##########                                Name:    ZINC000504860563
##########                DOCK_Rotatable_Bonds:                   6
##########                         Heavy_Atoms:                  25
##########                    Molecular_Weight:             370.786
##########                DOCK_Rotatable_Bonds:                   6
##########                       Formal_Charge:                0.01
##########                     HBond_Acceptors:                   9
##########                        HBond_Donors:                   0
##########                         Heavy_Atoms:                  25
##########                          Grid_Score:          -29.455021
##########                     Grid_vdw_energy:          -27.961351
##########                      Grid_es_energy:           -1.493670
##########           Internal_energy_repulsive:           17.833189

@<TRIPOS>MOLECULE
ZINC000504860563
 42 44 1 0 0
SMALL
USER_CHARGES


@<TRIPOS>ATOM
      1 O1         -7.0996   -2.5048   58.8533 O.2     1  ZINC000504860563   -0.5100
      2 C2         -7.7946   -1.6187   58.3958 C.2     1  ZINC000504860563    0.5700
      3 C3         -7.5016   -0.2067   58.7218 C.ar    1  ZINC000504860563    0.0500
      4 N4         -6.7741    0.5261   57.8861 N.ar    1  ZINC000504860563   -0.4100
      5 C5         -6.4916    1.7844   58.1382 C.ar    1  ZINC000504860563    0.0600
      6 C6         -6.9446    2.4021   59.2947 C.ar    1  ZINC000504860563   -0.1000
      7 C7         -7.7063    1.6814   60.1970 C.ar    1  ZINC000504860563   -0.1700
      8 C8         -7.9974    0.3506   59.9056 C.ar    1  ZINC000504860563    0.1400
      9 O9         -8.7410   -0.3956   60.7601 O.3     1  ZINC000504860563   -0.2600
     10 C10        -9.0569    0.1889   62.0253 C.3     1  ZINC000504860563   -0.0100
     11 C11       -10.2534    1.1294   61.8682 C.3     1  ZINC000504860563    0.2800
     12 F12       -11.3802    0.3912   61.4903 F       1  ZINC000504860563   -0.1900
     13 F13       -10.5040    1.7726   63.0850 F       1  ZINC000504860563   -0.1900
     14 N14        -8.8289   -1.9229   57.5870 N.am    1  ZINC000504860563   -0.6000
     15 C15        -9.1362   -3.3217   57.2587 C.3     1  ZINC000504860563    0.0800
     16 C16       -10.6070   -3.5940   57.5895 C.3     1  ZINC000504860563   -0.1500
     17 C17       -11.4861   -2.5710   56.8666 C.3     1  ZINC000504860563    0.1600
     18 N18       -12.8955   -2.8488   57.1542 N.pl3   1  ZINC000504860563   -0.3600
     19 C19       -13.9493   -2.4781   56.3954 C.2     1  ZINC000504860563    0.0700
     20 C20       -15.0729   -2.9255   57.0035 C.2     1  ZINC000504860563   -0.1900
     21 Cl21      -16.6982   -2.7108   56.4325 Cl      1  ZINC000504860563   -0.0400
     22 C22       -14.6926   -3.5921   58.1736 C.2     1  ZINC000504860563    0.0600
     23 N23       -13.3877   -3.5511   58.2619 N.2     1  ZINC000504860563   -0.2800
     24 C24       -11.1352   -1.1620   57.3502 C.3     1  ZINC000504860563   -0.1400
     25 C25        -9.6742   -0.8625   57.0216 C.3     1  ZINC000504860563    0.1200
     26 H26        -5.8966    2.3466   57.4337 H       1  ZINC000504860563    0.1700
     27 H27        -6.7045    3.4370   59.4891 H       1  ZINC000504860563    0.1500
     28 H28        -8.0702    2.1408   61.1042 H       1  ZINC000504860563    0.1500
     29 H29        -9.3046   -0.5983   62.7375 H       1  ZINC000504860563    0.1000
     30 H30        -8.1978    0.7518   62.3903 H       1  ZINC000504860563    0.1000
     31 H31       -10.0328    1.8732   61.1026 H       1  ZINC000504860563    0.1300
     32 H32        -8.9624   -3.4944   56.1967 H       1  ZINC000504860563    0.0700
     33 H33        -8.5007   -3.9833   57.8474 H       1  ZINC000504860563    0.1600
     34 H34       -10.8735   -4.5989   57.2617 H       1  ZINC000504860563    0.0900
     35 H35       -10.7598   -3.5092   58.6654 H       1  ZINC000504860563    0.0700
     36 H36       -11.3144   -2.6393   55.7923 H       1  ZINC000504860563    0.1100
     37 H37       -13.9037   -1.9237   55.4696 H       1  ZINC000504860563    0.1800
     38 H38       -15.3606   -4.0625   58.8800 H       1  ZINC000504860563    0.1900
     39 H39       -11.7777   -0.4360   56.8521 H       1  ZINC000504860563    0.0900
     40 H40       -11.2829   -1.1001   58.4283 H       1  ZINC000504860563    0.0800
     41 H41        -9.3927    0.0989   57.4512 H       1  ZINC000504860563    0.1000
     42 H42        -9.5410   -0.8348   55.9401 H       1  ZINC000504860563    0.0800
@<TRIPOS>BOND
     1     1     2    2
     2     2     3    1
     3     2    14   am
     4     3     8   ar
     5     3     4   ar
     6     4     5   ar
     7     5     6   ar
     8     5    26    1
     9     6     7   ar
    10     6    27    1
    11     7     8   ar
    12     7    28    1
    13     8     9    1
    14     9    10    1
    15    10    11    1
    16    10    29    1
    17    10    30    1
    18    11    12    1
    19    11    13    1
    20    11    31    1
    21    14    25    1
    22    14    15    1
    23    15    16    1
    24    15    32    1
    25    15    33    1
    26    16    17    1
    27    16    34    1
    28    16    35    1
    29    17    18    1
    30    17    24    1
    31    17    36    1
    32    18    23    1
    33    18    19    1
    34    19    20    2
    35    19    37    1
    36    20    21    1
    37    20    22    1
    38    22    23    2
    39    22    38    1
    40    24    25    1
    41    24    39    1
    42    24    40    1
    43    25    41    1
    44    25    42    1
@<TRIPOS>SUBSTRUCTURE
     1 ZINC000504860563        1 TEMP              0 ****  ****    0 ROOT


##########                                Name:    ZINC000534799364
##########                DOCK_Rotatable_Bonds:                   4
##########                         Heavy_Atoms:                  29
##########                    Molecular_Weight:             391.491
##########                DOCK_Rotatable_Bonds:                   4
##########                       Formal_Charge:           0.0199998
##########                     HBond_Acceptors:                   6
##########                        HBond_Donors:                   0
##########                         Heavy_Atoms:                  29
##########                          Grid_Score:          -29.432167
##########                     Grid_vdw_energy:          -29.049845
##########                      Grid_es_energy:           -0.382322
##########           Internal_energy_repulsive:           14.764048

@<TRIPOS>MOLECULE
ZINC000534799364
 55 59 1 0 0
SMALL
USER_CHARGES


@<TRIPOS>ATOM
      1 C1         -4.0680    5.0763   50.9156 C.3     1  ZINC000534799364   -0.1100
      2 C2         -3.6985    3.6622   50.5487 C.ar    1  ZINC000534799364   -0.0200
      3 C3         -2.7198    3.4073   49.6024 C.ar    1  ZINC000534799364   -0.1700
      4 C4         -2.4067    2.0971   49.2906 C.ar    1  ZINC000534799364    0.1000
      5 N5         -3.0258    1.0935   49.8806 N.ar    1  ZINC000534799364   -0.4800
      6 C6         -3.9629    1.2915   50.7863 C.ar    1  ZINC000534799364    0.0800
      7 C7         -4.3287    2.5790   51.1571 C.ar    1  ZINC000534799364    0.0300
      8 N8         -5.3221    2.7848   52.1177 N.3     1  ZINC000534799364   -0.5000
      9 C9         -4.7851    2.6156   53.4751 C.3     1  ZINC000534799364    0.0600
     10 C10        -5.8812    2.9265   54.4969 C.3     1  ZINC000534799364    0.0600
     11 N11        -7.0256    2.0326   54.2712 N.3     1  ZINC000534799364   -0.5300
     12 C12        -8.0700    2.2490   55.2813 C.3     1  ZINC000534799364    0.1400
     13 C13        -8.6981    0.9284   55.6453 C.2     1  ZINC000534799364    0.1100
     14 N14        -8.1440   -0.0101   56.3684 N.2     1  ZINC000534799364   -0.2800
     15 N15        -9.0497   -1.0722   56.4759 N.pl3   1  ZINC000534799364   -0.3100
     16 C16        -8.8363   -2.2717   57.1707 C.ar    1  ZINC000534799364    0.1500
     17 C17        -9.8517   -3.2144   57.2580 C.ar    1  ZINC000534799364   -0.1000
     18 C18        -9.6397   -4.3950   57.9425 C.ar    1  ZINC000534799364   -0.1300
     19 C19        -8.4152   -4.6386   58.5417 C.ar    1  ZINC000534799364    0.1000
     20 F20        -8.2095   -5.7942   59.2107 F       1  ZINC000534799364   -0.1300
     21 C21        -7.4011   -3.6994   58.4557 C.ar    1  ZINC000534799364   -0.1300
     22 C22        -7.6075   -2.5202   57.7670 C.ar    1  ZINC000534799364   -0.0800
     23 C23       -10.1688   -0.7363   55.7901 C.2     1  ZINC000534799364    0.0500
     24 C24        -9.9791    0.4975   55.2722 C.2     1  ZINC000534799364   -0.2200
     25 C25       -11.2010    0.9310   54.4911 C.3     1  ZINC000534799364   -0.0400
     26 C26       -11.9948   -0.3689   54.2362 C.3     1  ZINC000534799364   -0.1200
     27 C27       -11.5382   -1.2589   55.4141 C.3     1  ZINC000534799364   -0.0500
     28 C28        -7.5626    2.2018   52.9137 C.3     1  ZINC000534799364    0.0600
     29 C29        -6.4664    1.8909   51.8919 C.3     1  ZINC000534799364    0.0600
     30 H30        -3.5056    5.3815   51.7981 H       1  ZINC000534799364    0.0800
     31 H31        -3.8300    5.7412   50.0853 H       1  ZINC000534799364    0.0600
     32 H32        -5.1356    5.1292   51.1290 H       1  ZINC000534799364    0.0800
     33 H33        -2.2074    4.2226   49.1134 H       1  ZINC000534799364    0.1400
     34 H34        -1.6445    1.8929   48.5531 H       1  ZINC000534799364    0.1600
     35 H35        -4.4480    0.4440   51.2477 H       1  ZINC000534799364    0.1500
     36 H36        -4.4462    1.5880   53.6067 H       1  ZINC000534799364    0.0500
     37 H37        -3.9470    3.2969   53.6222 H       1  ZINC000534799364    0.0800
     38 H38        -5.4935    2.7737   55.5041 H       1  ZINC000534799364    0.0900
     39 H39        -6.2010    3.9624   54.3834 H       1  ZINC000534799364    0.0500
     40 H40        -7.6280    2.6985   56.1705 H       1  ZINC000534799364    0.1000
     41 H41        -8.8327    2.9153   54.8782 H       1  ZINC000534799364    0.0500
     42 H42       -10.8069   -3.0245   56.7911 H       1  ZINC000534799364    0.1400
     43 H43       -10.4295   -5.1284   58.0110 H       1  ZINC000534799364    0.1500
     44 H44        -6.4469   -3.8910   58.9240 H       1  ZINC000534799364    0.1500
     45 H45        -6.8164   -1.7881   57.6999 H       1  ZINC000534799364    0.1400
     46 H46       -11.7972    1.6299   55.0777 H       1  ZINC000534799364    0.0800
     47 H47       -10.9046    1.3855   53.5457 H       1  ZINC000534799364    0.0700
     48 H48       -13.0681   -0.1851   54.2822 H       1  ZINC000534799364    0.0800
     49 H49       -11.7179   -0.8129   53.2800 H       1  ZINC000534799364    0.0800
     50 H50       -11.4702   -2.2999   55.0983 H       1  ZINC000534799364    0.0800
     51 H51       -12.2278   -1.1609   56.2525 H       1  ZINC000534799364    0.0900
     52 H52        -8.4007    1.5205   52.7667 H       1  ZINC000534799364    0.0900
     53 H53        -7.9015    3.2294   52.7822 H       1  ZINC000534799364    0.0500
     54 H54        -6.8542    2.0437   50.8847 H       1  ZINC000534799364    0.0800
     55 H55        -6.1466    0.8551   52.0055 H       1  ZINC000534799364    0.0500
@<TRIPOS>BOND
     1     1     2    1
     2     1    30    1
     3     1    31    1
     4     1    32    1
     5     2     7   ar
     6     2     3   ar
     7     3     4   ar
     8     3    33    1
     9     4     5   ar
    10     4    34    1
    11     5     6   ar
    12     6     7   ar
    13     6    35    1
    14     7     8    1
    15     8    29    1
    16     8     9    1
    17     9    10    1
    18     9    36    1
    19     9    37    1
    20    10    11    1
    21    10    38    1
    22    10    39    1
    23    11    12    1
    24    11    28    1
    25    12    13    1
    26    12    40    1
    27    12    41    1
    28    13    24    1
    29    13    14    2
    30    14    15    1
    31    15    16    1
    32    15    23    1
    33    16    22   ar
    34    16    17   ar
    35    17    18   ar
    36    17    42    1
    37    18    19   ar
    38    18    43    1
    39    19    20    1
    40    19    21   ar
    41    21    22   ar
    42    21    44    1
    43    22    45    1
    44    23    27    1
    45    23    24    2
    46    24    25    1
    47    25    26    1
    48    25    46    1
    49    25    47    1
    50    26    27    1
    51    26    48    1
    52    26    49    1
    53    27    50    1
    54    27    51    1
    55    28    29    1
    56    28    52    1
    57    28    53    1
    58    29    54    1
    59    29    55    1
@<TRIPOS>SUBSTRUCTURE
     1 ZINC000534799364        1 TEMP              0 ****  ****    0 ROOT


##########                                Name:    ZINC000461336108
##########                DOCK_Rotatable_Bonds:                   5
##########                         Heavy_Atoms:                  26
##########                    Molecular_Weight:             373.522
##########                DOCK_Rotatable_Bonds:                   5
##########                       Formal_Charge:        -3.42727e-07
##########                     HBond_Acceptors:                   7
##########                        HBond_Donors:                   0
##########                         Heavy_Atoms:                  26
##########                          Grid_Score:          -29.427307
##########                     Grid_vdw_energy:          -28.663155
##########                      Grid_es_energy:           -0.764152
##########           Internal_energy_repulsive:           10.202062

@<TRIPOS>MOLECULE
ZINC000461336108
 53 56 1 0 0
SMALL
USER_CHARGES


@<TRIPOS>ATOM
      1 C1         -8.4491    0.7160   55.0105 C.3     1  ZINC000461336108   -0.1300
      2 C2         -9.4272   -0.1251   54.1878 C.3     1  ZINC000461336108    0.0700
      3 H3         -8.9260   -1.0301   53.8443 H       1  ZINC000461336108    0.0800
      4 C4        -10.6038   -0.5009   55.0435 C.2     1  ZINC000461336108    0.5300
      5 O5        -10.4019   -0.8586   56.1846 O.2     1  ZINC000461336108   -0.5300
      6 N6        -11.8644   -0.4570   54.5996 N.am    1  ZINC000461336108   -0.6100
      7 C7        -12.9390   -0.8792   55.5013 C.3     1  ZINC000461336108    0.0700
      8 C8        -12.2176   -0.0068   53.2563 C.3     1  ZINC000461336108    0.1200
      9 C9        -10.9861   -0.0457   52.3495 C.3     1  ZINC000461336108    0.0400
     10 N10        -9.8813    0.6517   53.0266 N.3     1  ZINC000461336108   -0.4300
     11 C11        -8.8336    0.8894   52.1514 C.2     1  ZINC000461336108    0.3300
     12 N12        -8.0870   -0.0159   51.5640 N.2     1  ZINC000461336108   -0.2500
     13 N13        -7.2109    0.5572   50.8186 N.2     1  ZINC000461336108   -0.2800
     14 C14        -7.3452    1.8515   50.8854 C.2     1  ZINC000461336108    0.2000
     15 C15        -6.5114    2.8749   50.1585 C.3     1  ZINC000461336108   -0.0300
     16 C16        -5.1255    2.2935   49.8724 C.3     1  ZINC000461336108   -0.0900
     17 C17        -4.1987    3.3753   49.2643 C.3     1  ZINC000461336108   -0.1200
     18 C18        -2.7841    2.8456   49.6072 C.3     1  ZINC000461336108   -0.1200
     19 C19        -2.9377    2.2432   51.0190 C.3     1  ZINC000461336108   -0.1300
     20 C20        -4.4262    1.8921   51.1876 C.3     1  ZINC000461336108   -0.1200
     21 N21        -8.3871    2.1091   51.7329 N.pl3   1  ZINC000461336108   -0.4900
     22 C22        -8.9099    3.4222   52.1183 C.3     1  ZINC000461336108    0.1700
     23 C23        -9.9287    3.8747   51.1042 C.2     1  ZINC000461336108   -0.2400
     24 C24        -9.6667    4.6256   50.0334 C.2     1  ZINC000461336108   -0.0900
     25 C25       -10.7646    4.9162   49.2420 C.2     1  ZINC000461336108   -0.1400
     26 C26       -11.9181    4.4011   49.6702 C.2     1  ZINC000461336108   -0.2000
     27 S27       -11.6436    3.4868   51.1475 S.3     1  ZINC000461336108    0.1200
     28 H28        -8.9489    1.6214   55.3548 H       1  ZINC000461336108    0.0800
     29 H29        -8.1084    0.1395   55.8705 H       1  ZINC000461336108    0.0800
     30 H30        -7.5931    0.9862   54.3921 H       1  ZINC000461336108    0.0700
     31 H31       -12.5127   -1.1832   56.4573 H       1  ZINC000461336108    0.0900
     32 H32       -13.6284   -0.0496   55.6584 H       1  ZINC000461336108    0.0700
     33 H33       -13.4755   -1.7188   55.0592 H       1  ZINC000461336108    0.0600
     34 H34       -12.9888   -0.6596   52.8472 H       1  ZINC000461336108    0.0900
     35 H35       -12.5986    1.0133   53.3053 H       1  ZINC000461336108    0.0900
     36 H36       -10.7045   -1.0815   52.1596 H       1  ZINC000461336108    0.0500
     37 H37       -11.2105    0.4531   51.4067 H       1  ZINC000461336108    0.1100
     38 H38        -6.9964    3.1373   49.2183 H       1  ZINC000461336108    0.0800
     39 H39        -6.4106    3.7670   50.7767 H       1  ZINC000461336108    0.1000
     40 H40        -5.2031    1.4355   49.2045 H       1  ZINC000461336108    0.0900
     41 H41        -4.3360    3.4394   48.1850 H       1  ZINC000461336108    0.0600
     42 H42        -4.3735    4.3427   49.7352 H       1  ZINC000461336108    0.0600
     43 H43        -2.4815    2.0775   48.8955 H       1  ZINC000461336108    0.0700
     44 H44        -2.0629    3.6629   49.6174 H       1  ZINC000461336108    0.0700
     45 H45        -2.3292    1.3434   51.1092 H       1  ZINC000461336108    0.0700
     46 H46        -2.6388    2.9735   51.7711 H       1  ZINC000461336108    0.0600
     47 H47        -4.8498    2.4520   52.0215 H       1  ZINC000461336108    0.0700
     48 H48        -4.5403    0.8219   51.3597 H       1  ZINC000461336108    0.0700
     49 H49        -9.3799    3.3524   53.0994 H       1  ZINC000461336108    0.1200
     50 H50        -8.0920    4.1417   52.1576 H       1  ZINC000461336108    0.1000
     51 H51        -8.6733    4.9804   49.8016 H       1  ZINC000461336108    0.1400
     52 H52       -10.6927    5.5148   48.3461 H       1  ZINC000461336108    0.1500
     53 H53       -12.8739    4.5238   49.1824 H       1  ZINC000461336108    0.1700
@<TRIPOS>BOND
     1     1     2    1
     2     1    28    1
     3     1    29    1
     4     1    30    1
     5     2     3    1
     6     2    10    1
     7     2     4    1
     8     4     5    2
     9     4     6   am
    10     6     7    1
    11     6     8    1
    12     7    31    1
    13     7    32    1
    14     7    33    1
    15     8     9    1
    16     8    34    1
    17     8    35    1
    18     9    10    1
    19     9    36    1
    20     9    37    1
    21    10    11    1
    22    11    21    1
    23    11    12    2
    24    12    13    1
    25    13    14    2
    26    14    15    1
    27    14    21    1
    28    15    16    1
    29    15    38    1
    30    15    39    1
    31    16    20    1
    32    16    17    1
    33    16    40    1
    34    17    18    1
    35    17    41    1
    36    17    42    1
    37    18    19    1
    38    18    43    1
    39    18    44    1
    40    19    20    1
    41    19    45    1
    42    19    46    1
    43    20    47    1
    44    20    48    1
    45    21    22    1
    46    22    23    1
    47    22    49    1
    48    22    50    1
    49    23    27    1
    50    23    24    2
    51    24    25    1
    52    24    51    1
    53    25    26    2
    54    25    52    1
    55    26    27    1
    56    26    53    1
@<TRIPOS>SUBSTRUCTURE
     1 ZINC000461336108        1 TEMP              0 ****  ****    0 ROOT


##########                                Name:    ZINC000012087388
##########                DOCK_Rotatable_Bonds:                   5
##########                         Heavy_Atoms:                  29
##########                    Molecular_Weight:              418.52
##########                DOCK_Rotatable_Bonds:                   5
##########                       Formal_Charge:          -0.0499999
##########                     HBond_Acceptors:                  10
##########                        HBond_Donors:                   1
##########                         Heavy_Atoms:                  29
##########                          Grid_Score:          -29.418530
##########                     Grid_vdw_energy:          -27.102030
##########                      Grid_es_energy:           -2.316499
##########           Internal_energy_repulsive:           37.155979

@<TRIPOS>MOLECULE
ZINC000012087388
 55 58 1 0 0
SMALL
USER_CHARGES


@<TRIPOS>ATOM
      1 C1        -14.0955    1.9033   59.0444 C.3     1  <0>        -0.6600
      2 S2        -14.5687    0.6706   60.2882 S.o2    1  <0>         2.5100
      3 O3        -15.8290    0.9957   60.8582 O.2     1  <0>        -0.9400
      4 O4        -14.2937   -0.6422   59.8188 O.2     1  <0>        -0.9300
      5 C5        -13.4217    0.9108   61.6039 C.ar    1  <0>        -0.8400
      6 C6        -13.8460    1.3833   62.8357 C.ar    1  <0>         0.3000
      7 N7        -12.9591    1.5521   63.8025 N.ar    1  <0>        -0.5800
      8 C8        -11.6790    1.2750   63.6032 C.ar    1  <0>         0.6000
      9 N9        -10.7781    1.4633   64.6369 N.pl3   1  <0>        -0.5700
     10 C10        -9.3622    1.1080   64.4700 C.3     1  <0>         0.1200
     11 C11        -8.5030    2.3249   64.8274 C.3     1  <0>        -0.1400
     12 C12        -8.8685    2.8073   66.2330 C.3     1  <0>        -0.1200
     13 C13       -10.3394    3.2289   66.2631 C.3     1  <0>        -0.1400
     14 C14       -11.2182    2.0278   65.9200 C.3     1  <0>         0.1200
     15 N15       -11.2407    0.8215   62.4379 N.ar    1  <0>        -0.5700
     16 C16       -12.0760    0.6258   61.4312 C.ar    1  <0>         0.3200
     17 C17       -11.5694    0.1097   60.1092 C.3     1  <0>        -0.0700
     18 C18       -10.4574    1.0274   59.5958 C.3     1  <0>        -0.1300
     19 C19        -9.9687    0.5194   58.2357 C.3     1  <0>         0.0900
     20 N20        -9.5740   -0.8893   58.3710 N.am    1  <0>        -0.6100
     21 C21        -8.3510   -1.3003   57.9816 C.2     1  <0>         0.5900
     22 O22        -7.5619   -0.5022   57.5128 O.2     1  <0>        -0.5100
     23 C23        -7.9703   -2.7147   58.1235 C.2     1  <0>        -0.0400
     24 C24        -8.5845   -3.8038   57.5301 C.2     1  <0>        -0.1500
     25 C25        -7.8646   -4.9181   57.9671 C.2     1  <0>         0.0000
     26 N26        -6.9082   -4.4948   58.7536 N.2     1  <0>        -0.2700
     27 N27        -6.9363   -3.2153   58.8625 N.pl3   1  <0>        -0.3900
     28 C28       -10.5380   -1.8416   58.9393 C.3     1  <0>         0.1100
     29 C29       -11.0202   -1.3071   60.2915 C.3     1  <0>        -0.1200
     30 H30       -14.1731    2.9018   59.4747 H       1  <0>         0.1400
     31 H31       -13.0685    1.7234   58.7268 H       1  <0>         0.1300
     32 H32       -14.7607    1.8256   58.1843 H       1  <0>         0.1400
     33 H33       -14.8882    1.6113   63.0040 H       1  <0>         0.1900
     34 H34        -9.1133    0.2781   65.1313 H       1  <0>         0.0700
     35 H35        -9.1771    0.8213   63.4348 H       1  <0>         0.1000
     36 H36        -7.4494    2.0469   64.8006 H       1  <0>         0.0800
     37 H37        -8.6873    3.1240   64.1092 H       1  <0>         0.0700
     38 H38        -8.7074    1.9999   66.9474 H       1  <0>         0.0700
     39 H39        -8.2414    3.6581   66.4995 H       1  <0>         0.0700
     40 H40       -10.5929    3.5942   67.2583 H       1  <0>         0.0800
     41 H41       -10.5064    4.0194   65.5314 H       1  <0>         0.0700
     42 H42       -12.2579    2.3460   65.8433 H       1  <0>         0.1000
     43 H43       -11.1220    1.2705   66.6980 H       1  <0>         0.0700
     44 H44       -12.3870    0.0923   59.3886 H       1  <0>         0.1000
     45 H45       -10.8430    2.0412   59.4883 H       1  <0>         0.0800
     46 H46        -9.6286    1.0260   60.3039 H       1  <0>         0.0900
     47 H47       -10.7717    0.6053   57.5036 H       1  <0>         0.0800
     48 H48        -9.1114    1.1095   57.9117 H       1  <0>         0.0900
     49 H49        -9.4388   -3.7941   56.8694 H       1  <0>         0.1700
     50 H50        -8.0626   -5.9465   57.7033 H       1  <0>         0.1900
     51 H51        -6.3215   -2.6859   59.3941 H       1  <0>         0.4400
     52 H52       -11.3873   -1.9483   58.2646 H       1  <0>         0.0800
     53 H53       -10.0562   -2.8093   59.0796 H       1  <0>         0.1000
     54 H54       -10.1862   -1.2866   60.9930 H       1  <0>         0.0800
     55 H55       -11.8065   -1.9549   60.6793 H       1  <0>         0.0900
@<TRIPOS>BOND
     1     1     2    1
     2     1    30    1
     3     1    31    1
     4     1    32    1
     5     2     3    2
     6     2     4    2
     7     2     5    1
     8     5    16   ar
     9     5     6   ar
    10     6     7   ar
    11     6    33    1
    12     7     8   ar
    13     8     9    1
    14     8    15   ar
    15     9    14    1
    16     9    10    1
    17    10    11    1
    18    10    34    1
    19    10    35    1
    20    11    12    1
    21    11    36    1
    22    11    37    1
    23    12    13    1
    24    12    38    1
    25    12    39    1
    26    13    14    1
    27    13    40    1
    28    13    41    1
    29    14    42    1
    30    14    43    1
    31    15    16   ar
    32    16    17    1
    33    17    29    1
    34    17    18    1
    35    17    44    1
    36    18    19    1
    37    18    45    1
    38    18    46    1
    39    19    20    1
    40    19    47    1
    41    19    48    1
    42    20    21   am
    43    20    28    1
    44    21    22    2
    45    21    23    1
    46    23    27    1
    47    23    24    2
    48    24    25    1
    49    24    49    1
    50    25    26    2
    51    25    50    1
    52    26    27    1
    53    27    51    1
    54    28    29    1
    55    28    52    1
    56    28    53    1
    57    29    54    1
    58    29    55    1
@<TRIPOS>SUBSTRUCTURE
     1 <0>         1 TEMP              0 ****  ****    0 ROOT


##########                                Name:    ZINC000550011575
##########                DOCK_Rotatable_Bonds:                   6
##########                         Heavy_Atoms:                  28
##########                    Molecular_Weight:             423.935
##########                DOCK_Rotatable_Bonds:                   6
##########                       Formal_Charge:          -0.0100002
##########                     HBond_Acceptors:                   7
##########                        HBond_Donors:                   0
##########                         Heavy_Atoms:                  28
##########                          Grid_Score:          -29.400326
##########                     Grid_vdw_energy:          -29.759502
##########                      Grid_es_energy:            0.359177
##########           Internal_energy_repulsive:           38.605274

@<TRIPOS>MOLECULE
ZINC000550011575
 51 53 1 0 0
SMALL
USER_CHARGES


@<TRIPOS>ATOM
      1 C1         -8.0011    3.0638   58.6816 C.3     1  ZINC000550011575   -0.1400
      2 C2         -8.5127    1.9294   57.7915 C.3     1  ZINC000550011575   -0.6100
      3 H3         -9.5996    1.8791   57.8558 H       1  ZINC000550011575    0.1500
      4 C4         -8.1053    2.1884   56.3638 C.2     1  ZINC000550011575    0.5400
      5 O5         -7.1062    1.6683   55.9144 O.2     1  ZINC000550011575   -0.5100
      6 N6         -8.8513    2.9983   55.5866 N.am    1  ZINC000550011575   -0.6000
      7 C7        -10.0572    3.6281   56.1301 C.3     1  ZINC000550011575    0.0600
      8 C8         -8.4563    3.2487   54.1983 C.3     1  ZINC000550011575    0.1500
      9 C9         -8.6580    1.9962   53.3848 C.ar    1  ZINC000550011575   -0.1500
     10 C10        -9.8935    1.3724   53.3686 C.ar    1  ZINC000550011575    0.1400
     11 F11       -10.9194    1.8861   54.0821 F       1  ZINC000550011575   -0.1100
     12 C12       -10.0776    0.2218   52.6202 C.ar    1  ZINC000550011575   -0.1500
     13 C13        -9.0282   -0.3029   51.8902 C.ar    1  ZINC000550011575   -0.0700
     14 C14        -7.7942    0.3201   51.9064 C.ar    1  ZINC000550011575   -0.1300
     15 C15        -7.6099    1.4725   52.6493 C.ar    1  ZINC000550011575    0.0000
     16 Cl16       -6.0601    2.2544   52.6684 Cl      1  ZINC000550011575   -0.0500
     17 S17        -7.8007    0.3563   58.3475 S.o2    1  ZINC000550011575    2.4500
     18 O18        -6.3983    0.3885   58.1200 O.2     1  ZINC000550011575   -0.9200
     19 O19        -8.2853    0.0766   59.6537 O.2     1  ZINC000550011575   -0.9100
     20 C20        -8.5473   -0.8232   57.1892 C.3     1  ZINC000550011575   -0.5300
     21 H21        -8.0708   -0.7201   56.2143 H       1  ZINC000550011575    0.1500
     22 C22       -10.0386   -0.5220   57.0550 C.3     1  ZINC000550011575   -0.1100
     23 C23       -10.6903   -1.6522   56.2497 C.3     1  ZINC000550011575   -0.1100
     24 C24       -10.6933   -2.9158   57.1078 C.3     1  ZINC000550011575   -0.0900
     25 C25        -9.3164   -3.1874   57.6548 C.ar    1  ZINC000550011575   -0.0600
     26 C26        -9.0489   -4.4656   58.1272 C.ar    1  ZINC000550011575   -0.1200
     27 C27        -7.8086   -4.7761   58.6458 C.ar    1  ZINC000550011575   -0.1100
     28 C28        -6.8239   -3.8074   58.6968 C.ar    1  ZINC000550011575   -0.1100
     29 C29        -7.0870   -2.5375   58.2257 C.ar    1  ZINC000550011575   -0.1500
     30 C30        -8.3343   -2.2240   57.7004 C.ar    1  ZINC000550011575   -0.0800
     31 H31        -8.4306    2.9651   59.6787 H       1  ZINC000550011575    0.0900
     32 H32        -6.9144    3.0120   58.7475 H       1  ZINC000550011575    0.0900
     33 H33        -8.2939    4.0222   58.2531 H       1  ZINC000550011575    0.0800
     34 H34        -9.7976    4.5913   56.5694 H       1  ZINC000550011575    0.0700
     35 H35       -10.7815    3.7774   55.3293 H       1  ZINC000550011575    0.0800
     36 H36       -10.4898    2.9842   56.8958 H       1  ZINC000550011575    0.0700
     37 H37        -9.0671    4.0519   53.7860 H       1  ZINC000550011575    0.1000
     38 H38        -7.4059    3.5378   54.1659 H       1  ZINC000550011575    0.1100
     39 H39       -11.0413   -0.2655   52.6074 H       1  ZINC000550011575    0.1500
     40 H40        -9.1721   -1.2004   51.3070 H       1  ZINC000550011575    0.1500
     41 H41        -6.9746   -0.0911   51.3358 H       1  ZINC000550011575    0.1400
     42 H42       -10.4925   -0.4676   58.0446 H       1  ZINC000550011575    0.0800
     43 H43       -10.1763    0.4260   56.5350 H       1  ZINC000550011575    0.0900
     44 H44       -11.7143   -1.3786   55.9956 H       1  ZINC000550011575    0.0800
     45 H45       -10.1200   -1.8291   55.3377 H       1  ZINC000550011575    0.0700
     46 H46       -11.3900   -2.7862   57.9359 H       1  ZINC000550011575    0.0800
     47 H47       -11.0121   -3.7623   56.4997 H       1  ZINC000550011575    0.0800
     48 H48        -9.8181   -5.2227   58.0885 H       1  ZINC000550011575    0.1300
     49 H49        -7.6079   -5.7725   59.0110 H       1  ZINC000550011575    0.1300
     50 H50        -5.8520   -4.0436   59.1042 H       1  ZINC000550011575    0.1300
     51 H51        -6.3173   -1.7811   58.2664 H       1  ZINC000550011575    0.1700
@<TRIPOS>BOND
     1     1     2    1
     2     1    31    1
     3     1    32    1
     4     1    33    1
     5     2     3    1
     6     2     4    1
     7     2    17    1
     8     4     5    2
     9     4     6   am
    10     6     7    1
    11     6     8    1
    12     7    34    1
    13     7    35    1
    14     7    36    1
    15     8     9    1
    16     8    37    1
    17     8    38    1
    18     9    15   ar
    19     9    10   ar
    20    10    11    1
    21    10    12   ar
    22    12    13   ar
    23    12    39    1
    24    13    14   ar
    25    13    40    1
    26    14    15   ar
    27    14    41    1
    28    15    16    1
    29    17    18    2
    30    17    19    2
    31    17    20    1
    32    20    21    1
    33    20    30    1
    34    20    22    1
    35    22    23    1
    36    22    42    1
    37    22    43    1
    38    23    24    1
    39    23    44    1
    40    23    45    1
    41    24    25    1
    42    24    46    1
    43    24    47    1
    44    25    30   ar
    45    25    26   ar
    46    26    27   ar
    47    26    48    1
    48    27    28   ar
    49    27    49    1
    50    28    29   ar
    51    28    50    1
    52    29    30   ar
    53    29    51    1
@<TRIPOS>SUBSTRUCTURE
     1 ZINC000550011575        1 TEMP              0 ****  ****    0 ROOT


##########                                Name:    ZINC001300804061
##########                DOCK_Rotatable_Bonds:                   5
##########                         Heavy_Atoms:                  27
##########                    Molecular_Weight:              390.55
##########                DOCK_Rotatable_Bonds:                   5
##########                       Formal_Charge:                0.01
##########                     HBond_Acceptors:                   7
##########                        HBond_Donors:                   0
##########                         Heavy_Atoms:                  27
##########                          Grid_Score:          -29.369726
##########                     Grid_vdw_energy:          -28.578283
##########                      Grid_es_energy:           -0.791442
##########           Internal_energy_repulsive:           11.856772

@<TRIPOS>MOLECULE
ZINC001300804061
 57 60 1 0 0
SMALL
USER_CHARGES


@<TRIPOS>ATOM
      1 C1         -3.0390    2.4703   45.6692 C.3     1  ZINC001300804061    0.0300
      2 O2         -1.7071    2.7972   46.0711 O.3     1  ZINC001300804061   -0.3800
      3 C3         -1.2599    2.0911   47.2301 C.3     1  ZINC001300804061    0.1000
      4 H4         -1.8148    1.1577   47.3242 H       1  ZINC001300804061    0.0700
      5 C5         -1.4926    2.9515   48.4740 C.3     1  ZINC001300804061    0.0500
      6 N6         -1.0139    2.2350   49.6631 N.3     1  ZINC001300804061   -0.4600
      7 C7         -1.3271    2.9283   50.8198 C.2     1  ZINC001300804061    0.3600
      8 N8         -0.6136    3.8820   51.3731 N.2     1  ZINC001300804061   -0.3000
      9 N9         -1.1945    4.3092   52.4368 N.2     1  ZINC001300804061   -0.2500
     10 C10        -2.3178    3.6527   52.6283 C.2     1  ZINC001300804061    0.2600
     11 C11        -3.2680    3.8480   53.7346 C.2     1  ZINC001300804061    0.0400
     12 C12        -3.7371    5.0456   54.1844 C.2     1  ZINC001300804061   -0.1300
     13 C13        -4.6159    4.7629   55.2480 C.2     1  ZINC001300804061   -0.2100
     14 C14        -4.6413    3.4233   55.3949 C.2     1  ZINC001300804061    0.0100
     15 C15        -5.4503    2.6674   56.4173 C.3     1  ZINC001300804061   -0.0800
     16 O16        -3.8308    2.8732   54.4758 O.3     1  ZINC001300804061   -0.1700
     17 N17        -2.4386    2.7514   51.5938 N.pl3   1  ZINC001300804061   -0.4600
     18 C18        -3.5276    1.7966   51.3741 C.3     1  ZINC001300804061    0.1200
     19 C19        -4.8498    2.5539   51.2350 C.3     1  ZINC001300804061   -0.1000
     20 H20        -5.1072    3.0109   52.1906 H       1  ZINC001300804061    0.0900
     21 C21        -5.9509    1.5799   50.8264 C.3     1  ZINC001300804061   -0.1200
     22 C22        -7.3228    2.2386   50.9371 C.3     1  ZINC001300804061   -0.1200
     23 C23        -7.4865    3.2926   49.8389 C.3     1  ZINC001300804061   -0.0800
     24 S24        -6.2467    4.5979   50.0886 S.3     1  ZINC001300804061   -0.2600
     25 C25        -4.7005    3.6463   50.1729 C.3     1  ZINC001300804061   -0.0700
     26 C26         0.4288    1.9738   49.5804 C.3     1  ZINC001300804061    0.0600
     27 C27         0.7189    1.0841   48.3695 C.3     1  ZINC001300804061   -0.1100
     28 C28         0.2348    1.7862   47.0978 C.3     1  ZINC001300804061   -0.0900
     29 H29         0.7852    2.7174   46.9637 H       1  ZINC001300804061    0.0800
     30 C30         0.4686    0.8758   45.8906 C.3     1  ZINC001300804061   -0.1400
     31 H31        -3.0986    1.4062   45.4405 H       1  ZINC001300804061    0.0400
     32 H32        -3.7308    2.7076   46.4773 H       1  ZINC001300804061    0.0400
     33 H33        -3.3032    3.0477   44.7833 H       1  ZINC001300804061    0.0900
     34 H34        -0.9491    3.8910   48.3728 H       1  ZINC001300804061    0.0700
     35 H35        -2.5578    3.1579   48.5788 H       1  ZINC001300804061    0.0800
     36 H36        -3.4837    6.0225   53.8000 H       1  ZINC001300804061    0.1600
     37 H37        -5.1658    5.4836   55.8349 H       1  ZINC001300804061    0.1600
     38 H38        -6.4287    2.4272   56.0011 H       1  ZINC001300804061    0.0900
     39 H39        -4.9318    1.7457   56.6817 H       1  ZINC001300804061    0.0800
     40 H40        -5.5756    3.2823   57.3085 H       1  ZINC001300804061    0.0900
     41 H41        -3.3359    1.2301   50.4628 H       1  ZINC001300804061    0.1100
     42 H42        -3.5878    1.1129   52.2210 H       1  ZINC001300804061    0.1000
     43 H43        -5.7865    1.2640   49.7963 H       1  ZINC001300804061    0.0700
     44 H44        -5.9182    0.7070   51.4784 H       1  ZINC001300804061    0.0800
     45 H45        -8.0982    1.4802   50.8293 H       1  ZINC001300804061    0.0800
     46 H46        -7.4179    2.7149   51.9129 H       1  ZINC001300804061    0.0800
     47 H47        -7.3380    2.8297   48.8633 H       1  ZINC001300804061    0.0800
     48 H48        -8.4864    3.7235   49.8924 H       1  ZINC001300804061    0.1100
     49 H49        -3.8787    4.3083   50.4457 H       1  ZINC001300804061    0.1000
     50 H50        -4.4987    3.1908   49.2035 H       1  ZINC001300804061    0.0900
     51 H51         0.9634    2.9177   49.4740 H       1  ZINC001300804061    0.0600
     52 H52         0.7592    1.4698   50.4888 H       1  ZINC001300804061    0.0800
     53 H53         1.7915    0.9032   48.2995 H       1  ZINC001300804061    0.0800
     54 H54         0.1958    0.1345   48.4819 H       1  ZINC001300804061    0.0800
     55 H55        -0.0839   -0.0542   46.0244 H       1  ZINC001300804061    0.0500
     56 H56         0.1238    1.3763   44.9858 H       1  ZINC001300804061    0.0600
     57 H57         1.5326    0.6566   45.8014 H       1  ZINC001300804061    0.0600
@<TRIPOS>BOND
     1     1     2    1
     2     1    31    1
     3     1    32    1
     4     1    33    1
     5     2     3    1
     6     3     4    1
     7     3    28    1
     8     3     5    1
     9     5     6    1
    10     5    34    1
    11     5    35    1
    12     6     7    1
    13     6    26    1
    14     7    17    1
    15     7     8    2
    16     8     9    1
    17     9    10    2
    18    10    11    1
    19    10    17    1
    20    11    16    1
    21    11    12    2
    22    12    13    1
    23    12    36    1
    24    13    14    2
    25    13    37    1
    26    14    15    1
    27    14    16    1
    28    15    38    1
    29    15    39    1
    30    15    40    1
    31    17    18    1
    32    18    19    1
    33    18    41    1
    34    18    42    1
    35    19    20    1
    36    19    25    1
    37    19    21    1
    38    21    22    1
    39    21    43    1
    40    21    44    1
    41    22    23    1
    42    22    45    1
    43    22    46    1
    44    23    24    1
    45    23    47    1
    46    23    48    1
    47    24    25    1
    48    25    49    1
    49    25    50    1
    50    26    27    1
    51    26    51    1
    52    26    52    1
    53    27    28    1
    54    27    53    1
    55    27    54    1
    56    28    29    1
    57    28    30    1
    58    30    55    1
    59    30    56    1
    60    30    57    1
@<TRIPOS>SUBSTRUCTURE
     1 ZINC001300804061        1 TEMP              0 ****  ****    0 ROOT


##########                                Name:    ZINC000680410869
##########                DOCK_Rotatable_Bonds:                   6
##########                         Heavy_Atoms:                  24
##########                    Molecular_Weight:             335.354
##########                DOCK_Rotatable_Bonds:                   6
##########                       Formal_Charge:        -1.04308e-07
##########                     HBond_Acceptors:                   7
##########                        HBond_Donors:                   0
##########                         Heavy_Atoms:                  24
##########                          Grid_Score:          -29.352715
##########                     Grid_vdw_energy:          -28.907368
##########                      Grid_es_energy:           -0.445348
##########           Internal_energy_repulsive:            9.934151

@<TRIPOS>MOLECULE
ZINC000680410869
 43 45 1 0 0
SMALL
USER_CHARGES


@<TRIPOS>ATOM
      1 O1         -7.6718    0.0115   51.4118 O.2     1  ZINC000680410869   -0.5200
      2 C2         -7.0079    0.9747   51.7424 C.2     1  ZINC000680410869    0.6100
      3 C3         -5.8963    1.4349   50.8853 C.2     1  ZINC000680410869    0.0100
      4 N4         -4.6347    1.0628   50.9699 N.2     1  ZINC000680410869   -0.2500
      5 N5         -3.9382    1.6577   50.0691 N.pl3   1  ZINC000680410869   -0.3500
      6 C6         -2.4975    1.4806   49.8712 C.3     1  ZINC000680410869    0.5000
      7 F7         -2.2697    0.8454   48.6456 F       1  ZINC000680410869   -0.1600
      8 F8         -1.8694    2.7306   49.8724 F       1  ZINC000680410869   -0.1700
      9 C9         -4.7252    2.4692   49.3306 C.2     1  ZINC000680410869    0.0100
     10 C10        -5.9846    2.3544   49.8134 C.2     1  ZINC000680410869   -0.1700
     11 N11        -7.2895    1.6261   52.8882 N.am    1  ZINC000680410869   -0.6000
     12 C12        -6.5038    2.7980   53.3062 C.3     1  ZINC000680410869    0.0800
     13 C13        -6.0608    2.5900   54.7589 C.3     1  ZINC000680410869    0.0500
     14 O14        -7.2028    2.2732   55.5586 O.3     1  ZINC000680410869   -0.3700
     15 C15        -7.8571    1.0571   55.1888 C.3     1  ZINC000680410869    0.0800
     16 H16        -7.1467    0.2318   55.2385 H       1  ZINC000680410869    0.0600
     17 C17        -9.0189    0.7898   56.1478 C.3     1  ZINC000680410869   -0.1000
     18 C18        -8.4709    0.5243   57.5514 C.3     1  ZINC000680410869   -0.0800
     19 C19        -8.3299   -0.9612   57.7628 C.ar    1  ZINC000680410869   -0.0800
     20 C20        -7.1033   -1.4965   58.1092 C.ar    1  ZINC000680410869   -0.1200
     21 C21        -6.9739   -2.8591   58.3031 C.ar    1  ZINC000680410869   -0.1200
     22 C22        -8.0711   -3.6862   58.1512 C.ar    1  ZINC000680410869   -0.1300
     23 C23        -9.2978   -3.1506   57.8057 C.ar    1  ZINC000680410869   -0.1200
     24 C24        -9.4282   -1.7876   57.6159 C.ar    1  ZINC000680410869   -0.1200
     25 C25        -8.3956    1.1900   53.7552 C.3     1  ZINC000680410869    0.0600
     26 H26        -2.0924    0.8696   50.6779 H       1  ZINC000680410869    0.1700
     27 H27        -4.4095    3.0908   48.5057 H       1  ZINC000680410869    0.1900
     28 H28        -6.8694    2.8621   49.4588 H       1  ZINC000680410869    0.1700
     29 H29        -5.6274    2.8997   52.6661 H       1  ZINC000680410869    0.1000
     30 H30        -7.1175    3.6959   53.2345 H       1  ZINC000680410869    0.0800
     31 H31        -5.3439    1.7703   54.8071 H       1  ZINC000680410869    0.0600
     32 H32        -5.5968    3.5029   55.1324 H       1  ZINC000680410869    0.1100
     33 H33        -9.6766    1.6587   56.1729 H       1  ZINC000680410869    0.0800
     34 H34        -9.5793   -0.0803   55.8059 H       1  ZINC000680410869    0.0800
     35 H35        -7.4961    1.0004   57.6570 H       1  ZINC000680410869    0.0700
     36 H36        -9.1573    0.9333   58.2928 H       1  ZINC000680410869    0.0800
     37 H37        -6.2461   -0.8504   58.2279 H       1  ZINC000680410869    0.1200
     38 H38        -6.0155   -3.2775   58.5731 H       1  ZINC000680410869    0.1200
     39 H39        -7.9698   -4.7508   58.3020 H       1  ZINC000680410869    0.1200
     40 H40       -10.1549   -3.7969   57.6866 H       1  ZINC000680410869    0.1200
     41 H41       -10.3865   -1.3692   57.3460 H       1  ZINC000680410869    0.1200
     42 H42        -9.1995    1.9257   53.7319 H       1  ZINC000680410869    0.0800
     43 H43        -8.7701    0.2253   53.4128 H       1  ZINC000680410869    0.1300
@<TRIPOS>BOND
     1     1     2    2
     2     2     3    1
     3     2    11   am
     4     3    10    1
     5     3     4    2
     6     4     5    1
     7     5     6    1
     8     5     9    1
     9     6     7    1
    10     6     8    1
    11     6    26    1
    12     9    10    2
    13     9    27    1
    14    10    28    1
    15    11    25    1
    16    11    12    1
    17    12    13    1
    18    12    29    1
    19    12    30    1
    20    13    14    1
    21    13    31    1
    22    13    32    1
    23    14    15    1
    24    15    16    1
    25    15    17    1
    26    15    25    1
    27    17    18    1
    28    17    33    1
    29    17    34    1
    30    18    19    1
    31    18    35    1
    32    18    36    1
    33    19    24   ar
    34    19    20   ar
    35    20    21   ar
    36    20    37    1
    37    21    22   ar
    38    21    38    1
    39    22    23   ar
    40    22    39    1
    41    23    24   ar
    42    23    40    1
    43    24    41    1
    44    25    42    1
    45    25    43    1
@<TRIPOS>SUBSTRUCTURE
     1 ZINC000680410869        1 TEMP              0 ****  ****    0 ROOT


##########                                Name:    ZINC000676564986
##########                DOCK_Rotatable_Bonds:                   5
##########                         Heavy_Atoms:                  25
##########                    Molecular_Weight:             347.444
##########                DOCK_Rotatable_Bonds:                   5
##########                       Formal_Charge:          -0.0100005
##########                     HBond_Acceptors:                   6
##########                        HBond_Donors:                   1
##########                         Heavy_Atoms:                  25
##########                          Grid_Score:          -29.347282
##########                     Grid_vdw_energy:          -28.742165
##########                      Grid_es_energy:           -0.605118
##########           Internal_energy_repulsive:            3.972869

@<TRIPOS>MOLECULE
ZINC000676564986
 42 45 1 0 0
SMALL
USER_CHARGES


@<TRIPOS>ATOM
      1 C1         -8.4108   -5.4410   58.2563 C.3     1  ZINC000676564986    0.0800
      2 N2         -8.3637   -3.9778   58.1994 N.pl3   1  ZINC000676564986   -0.4800
      3 C3         -7.2606   -3.1985   58.3835 C.2     1  ZINC000676564986    0.2500
      4 N4         -7.5786   -1.9422   58.2634 N.2     1  ZINC000676564986   -0.4600
      5 C5         -8.9023   -1.8358   57.9954 C.ar    1  ZINC000676564986   -0.1100
      6 C6         -9.7823   -0.7634   57.7724 C.ar    1  ZINC000676564986    0.5100
      7 N7         -9.3279    0.5434   57.8032 N.pl3   1  ZINC000676564986   -0.6900
      8 C8         -9.8480    1.5225   56.8456 C.3     1  ZINC000676564986    0.1700
      9 C9         -9.3592    1.1802   55.4617 C.ar    1  ZINC000676564986   -0.0800
     10 C10       -10.1742    0.4716   54.5978 C.ar    1  ZINC000676564986   -0.1100
     11 C11        -9.7296    0.1563   53.3291 C.ar    1  ZINC000676564986   -0.0700
     12 C12        -8.4615    0.5517   52.9208 C.ar    1  ZINC000676564986   -0.1300
     13 S13        -7.8902    0.1520   51.3027 S.3     1  ZINC000676564986   -0.0100
     14 C14        -7.1651    1.6614   50.7542 C.ar    1  ZINC000676564986   -0.1000
     15 C15        -7.8726    2.8528   50.8602 C.ar    1  ZINC000676564986   -0.1200
     16 C16        -7.3011    4.0338   50.4299 C.ar    1  ZINC000676564986   -0.1000
     17 C17        -6.0262    4.0320   49.8938 C.ar    1  ZINC000676564986   -0.1200
     18 C18        -5.3191    2.8482   49.7867 C.ar    1  ZINC000676564986   -0.1000
     19 C19        -5.8823    1.6642   50.2199 C.ar    1  ZINC000676564986   -0.1000
     20 C20        -7.6453    1.2636   53.7916 C.ar    1  ZINC000676564986   -0.0700
     21 C21        -8.0987    1.5804   55.0568 C.ar    1  ZINC000676564986   -0.1100
     22 N22       -11.0611   -1.0332   57.5308 N.ar    1  ZINC000676564986   -0.5900
     23 C23       -11.5034   -2.2769   57.4991 C.ar    1  ZINC000676564986    0.3600
     24 N24       -10.7161   -3.3123   57.7025 N.ar    1  ZINC000676564986   -0.5600
     25 C25        -9.4209   -3.1409   57.9453 C.ar    1  ZINC000676564986    0.3000
     26 H26        -8.2167   -5.8496   57.2645 H       1  ZINC000676564986    0.0800
     27 H27        -7.6536   -5.8021   58.9524 H       1  ZINC000676564986    0.0900
     28 H28        -9.3967   -5.7600   58.5941 H       1  ZINC000676564986    0.0900
     29 H29        -6.2690   -3.5688   58.5979 H       1  ZINC000676564986    0.2200
     30 H30        -8.6651    0.8112   58.4588 H       1  ZINC000676564986    0.4200
     31 H31       -10.9377    1.5026   56.8613 H       1  ZINC000676564986    0.0800
     32 H32        -9.4989    2.5184   57.1182 H       1  ZINC000676564986    0.0800
     33 H33       -11.1595    0.1643   54.9159 H       1  ZINC000676564986    0.1300
     34 H34       -10.3664   -0.3974   52.6552 H       1  ZINC000676564986    0.1400
     35 H35        -8.8684    2.8549   51.2784 H       1  ZINC000676564986    0.1200
     36 H36        -7.8505    4.9600   50.5116 H       1  ZINC000676564986    0.1300
     37 H37        -5.5818    4.9572   49.5577 H       1  ZINC000676564986    0.1300
     38 H38        -4.3238    2.8505   49.3676 H       1  ZINC000676564986    0.1300
     39 H39        -5.3295    0.7401   50.1362 H       1  ZINC000676564986    0.1300
     40 H40        -6.6592    1.5726   53.4776 H       1  ZINC000676564986    0.1300
     41 H41        -7.4650    2.1336   55.7340 H       1  ZINC000676564986    0.1300
     42 H42       -12.5503   -2.4514   57.2993 H       1  ZINC000676564986    0.2000
@<TRIPOS>BOND
     1     1     2    1
     2     1    26    1
     3     1    27    1
     4     1    28    1
     5     2    25    1
     6     2     3    1
     7     3     4    2
     8     3    29    1
     9     4     5    1
    10     5    25   ar
    11     5     6   ar
    12     6     7    1
    13     6    22   ar
    14     7     8    1
    15     7    30    1
    16     8     9    1
    17     8    31    1
    18     8    32    1
    19     9    21   ar
    20     9    10   ar
    21    10    11   ar
    22    10    33    1
    23    11    12   ar
    24    11    34    1
    25    12    13    1
    26    12    20   ar
    27    13    14    1
    28    14    19   ar
    29    14    15   ar
    30    15    16   ar
    31    15    35    1
    32    16    17   ar
    33    16    36    1
    34    17    18   ar
    35    17    37    1
    36    18    19   ar
    37    18    38    1
    38    19    39    1
    39    20    21   ar
    40    20    40    1
    41    21    41    1
    42    22    23   ar
    43    23    24   ar
    44    23    42    1
    45    24    25   ar
@<TRIPOS>SUBSTRUCTURE
     1 ZINC000676564986        1 TEMP              0 ****  ****    0 ROOT


##########                                Name:    ZINC000265786263
##########                DOCK_Rotatable_Bonds:                   7
##########                         Heavy_Atoms:                  28
##########                    Molecular_Weight:             386.451
##########                DOCK_Rotatable_Bonds:                   7
##########                       Formal_Charge:           0.0499992
##########                     HBond_Acceptors:                   8
##########                        HBond_Donors:                   2
##########                         Heavy_Atoms:                  28
##########                          Grid_Score:          -29.342630
##########                     Grid_vdw_energy:          -29.199640
##########                      Grid_es_energy:           -0.142990
##########           Internal_energy_repulsive:           18.478897

@<TRIPOS>MOLECULE
ZINC000265786263
 54 57 1 0 0
SMALL
USER_CHARGES


@<TRIPOS>ATOM
      1 C1         -4.4486    2.3558   52.2972 C.3     1  ZINC000265786263   -0.1500
      2 C2         -5.9086    2.4526   51.8497 C.3     1  ZINC000265786263    0.1600
      3 C3         -6.1695    3.7910   51.1557 C.3     1  ZINC000265786263   -0.1600
      4 C4         -5.5901    3.9841   49.7529 C.3     1  ZINC000265786263   -0.1600
      5 C5         -7.0958    3.7865   49.9381 C.3     1  ZINC000265786263   -0.1600
      6 N6         -6.2541    1.3288   50.9622 N.am    1  ZINC000265786263   -0.7100
      7 C7         -7.2338    0.6409   51.5761 C.2     1  ZINC000265786263    0.7100
      8 O8         -7.7536   -0.3547   51.1116 O.2     1  ZINC000265786263   -0.5400
      9 N9         -7.5720    1.1752   52.7552 N.am    1  ZINC000265786263   -0.5600
     10 C10        -8.6078    0.6327   53.6378 C.3     1  ZINC000265786263    0.1000
     11 C11        -9.9547    0.7716   52.9761 C.2     1  ZINC000265786263    0.5100
     12 O12       -10.0839    1.4917   52.0089 O.2     1  ZINC000265786263   -0.5300
     13 N13       -11.0157    0.0953   53.4593 N.am    1  ZINC000265786263   -0.6100
     14 C14       -10.8828   -0.7772   54.6359 C.3     1  ZINC000265786263    0.1100
     15 C15       -11.9724   -0.4018   55.6459 C.3     1  ZINC000265786263    0.0400
     16 N16       -13.2838   -0.4452   54.9854 N.3     1  ZINC000265786263   -0.5300
     17 C17       -14.3693   -0.2601   55.9576 C.3     1  ZINC000265786263    0.0900
     18 C18       -14.2246   -1.2667   57.0698 C.ar    1  ZINC000265786263   -0.0600
     19 C19       -14.1430   -0.8391   58.3819 C.ar    1  ZINC000265786263   -0.1300
     20 C20       -14.0102   -1.7603   59.4048 C.ar    1  ZINC000265786263   -0.1000
     21 C21       -13.9587   -3.1103   59.1176 C.ar    1  ZINC000265786263   -0.1400
     22 C22       -14.0404   -3.5419   57.8014 C.ar    1  ZINC000265786263    0.1100
     23 O23       -13.9903   -4.8698   57.5163 O.3     1  ZINC000265786263   -0.5000
     24 C24       -14.1792   -2.6164   56.7777 C.ar    1  ZINC000265786263   -0.1200
     25 C25       -13.3695    0.5468   53.9054 C.3     1  ZINC000265786263    0.0400
     26 C26       -12.3386    0.2152   52.8278 C.3     1  ZINC000265786263    0.1200
     27 C27        -6.8414    2.2736   53.0310 C.2     1  ZINC000265786263    0.5400
     28 O28        -6.9146    2.9727   54.0188 O.2     1  ZINC000265786263   -0.4500
     29 H29        -4.2727    1.3823   52.7549 H       1  ZINC000265786263    0.0700
     30 H30        -3.7951    2.4745   51.4330 H       1  ZINC000265786263    0.0800
     31 H31        -4.2381    3.1417   53.0226 H       1  ZINC000265786263    0.0900
     32 H32        -6.2036    4.6614   51.8108 H       1  ZINC000265786263    0.1100
     33 H33        -5.2426    4.9819   49.4849 H       1  ZINC000265786263    0.1000
     34 H34        -5.0229    3.1578   49.3244 H       1  ZINC000265786263    0.1100
     35 H35        -7.5195    2.8302   49.6313 H       1  ZINC000265786263    0.1000
     36 H36        -7.7391    4.6543   49.7919 H       1  ZINC000265786263    0.1000
     37 H37        -5.8539    1.1250   50.1026 H       1  ZINC000265786263    0.4400
     38 H38        -8.4050   -0.4206   53.8315 H       1  ZINC000265786263    0.1300
     39 H39        -8.6071    1.1820   54.5792 H       1  ZINC000265786263    0.1300
     40 H40       -11.0047   -1.8178   54.3356 H       1  ZINC000265786263    0.0900
     41 H41        -9.9007   -0.6360   55.0873 H       1  ZINC000265786263    0.0900
     42 H42       -11.9591   -1.1093   56.4749 H       1  ZINC000265786263    0.0900
     43 H43       -11.7880    0.6042   56.0227 H       1  ZINC000265786263    0.0400
     44 H44       -14.3193    0.7474   56.3706 H       1  ZINC000265786263    0.0900
     45 H45       -15.3294   -0.4022   55.4617 H       1  ZINC000265786263    0.0500
     46 H46       -14.1828    0.2161   58.6086 H       1  ZINC000265786263    0.1200
     47 H47       -13.9464   -1.4237   60.4290 H       1  ZINC000265786263    0.1300
     48 H48       -13.8546   -3.8293   59.9168 H       1  ZINC000265786263    0.1300
     49 H49       -13.8505   -5.4331   58.2898 H       1  ZINC000265786263    0.3900
     50 H50       -14.2429   -2.9499   55.7525 H       1  ZINC000265786263    0.1300
     51 H51       -14.3696    0.5274   53.4722 H       1  ZINC000265786263    0.1000
     52 H52       -13.1658    1.5396   54.3065 H       1  ZINC000265786263    0.0400
     53 H53       -12.3195    1.0101   52.0822 H       1  ZINC000265786263    0.1000
     54 H54       -12.5976   -0.7308   52.3520 H       1  ZINC000265786263    0.0800
@<TRIPOS>BOND
     1     1     2    1
     2     1    29    1
     3     1    30    1
     4     1    31    1
     5     2    27    1
     6     2     3    1
     7     2     6    1
     8     3     5    1
     9     3     4    1
    10     3    32    1
    11     4     5    1
    12     4    33    1
    13     4    34    1
    14     5    35    1
    15     5    36    1
    16     6     7   am
    17     6    37    1
    18     7     8    2
    19     7     9   am
    20     9    10    1
    21     9    27   am
    22    10    11    1
    23    10    38    1
    24    10    39    1
    25    11    12    2
    26    11    13   am
    27    13    26    1
    28    13    14    1
    29    14    15    1
    30    14    40    1
    31    14    41    1
    32    15    16    1
    33    15    42    1
    34    15    43    1
    35    16    17    1
    36    16    25    1
    37    17    18    1
    38    17    44    1
    39    17    45    1
    40    18    24   ar
    41    18    19   ar
    42    19    20   ar
    43    19    46    1
    44    20    21   ar
    45    20    47    1
    46    21    22   ar
    47    21    48    1
    48    22    23    1
    49    22    24   ar
    50    23    49    1
    51    24    50    1
    52    25    26    1
    53    25    51    1
    54    25    52    1
    55    26    53    1
    56    26    54    1
    57    27    28    2
@<TRIPOS>SUBSTRUCTURE
     1 ZINC000265786263        1 TEMP              0 ****  ****    0 ROOT


##########                                Name:    ZINC001356153960
##########                DOCK_Rotatable_Bonds:                   8
##########                         Heavy_Atoms:                  24
##########                    Molecular_Weight:             334.366
##########                DOCK_Rotatable_Bonds:                   8
##########                       Formal_Charge:           0.0100003
##########                     HBond_Acceptors:                   6
##########                        HBond_Donors:                   1
##########                         Heavy_Atoms:                  24
##########                          Grid_Score:          -29.334999
##########                     Grid_vdw_energy:          -29.383631
##########                      Grid_es_energy:            0.048631
##########           Internal_energy_repulsive:           12.889366

@<TRIPOS>MOLECULE
ZINC001356153960
 44 46 1 0 0
SMALL
USER_CHARGES


@<TRIPOS>ATOM
      1 O1         -7.1389    1.6867   49.9248 O.2     1  ZINC001356153960   -0.5200
      2 C2         -6.4248    1.6030   50.9024 C.2     1  ZINC001356153960    0.5100
      3 N3         -6.9701    1.5752   52.1347 N.am    1  ZINC001356153960   -0.7000
      4 C4         -8.4250    1.6399   52.2935 C.3     1  ZINC001356153960    0.1300
      5 C5         -8.9391    0.3034   52.8326 C.3     1  ZINC001356153960   -0.0800
      6 H6         -8.4673   -0.5250   52.3043 H       1  ZINC001356153960    0.0900
      7 C7         -8.6769    0.1987   54.3170 C.2     1  ZINC001356153960   -0.1700
      8 C8         -9.7235   -0.2596   54.9480 C.2     1  ZINC001356153960   -0.1600
      9 C9        -10.8583   -0.5370   53.9896 C.3     1  ZINC001356153960   -0.1000
     10 C10       -10.4772    0.2233   52.6959 C.3     1  ZINC001356153960   -0.1200
     11 C11        -4.9407    1.5371   50.7404 C.2     1  ZINC001356153960    0.5100
     12 O12        -4.3558    0.4903   50.9269 O.2     1  ZINC001356153960   -0.5100
     13 N13        -4.2517    2.6403   50.3872 N.am    1  ZINC001356153960   -0.5500
     14 C14        -2.7967    2.5758   50.2284 C.3     1  ZINC001356153960    0.1300
     15 C15        -2.4639    1.9636   48.8923 C.ar    1  ZINC001356153960   -0.1600
     16 C16        -3.0540    2.4523   47.7423 C.ar    1  ZINC001356153960   -0.0300
     17 C17        -2.7453    1.8954   46.5154 C.ar    1  ZINC001356153960   -0.1700
     18 C18        -1.8530    0.8396   46.4386 C.ar    1  ZINC001356153960    0.1400
     19 F19        -1.5553    0.2921   45.2400 F       1  ZINC001356153960   -0.1300
     20 C20        -1.2654    0.3453   47.5908 C.ar    1  ZINC001356153960   -0.2000
     21 C21        -1.5709    0.9075   48.8180 C.ar    1  ZINC001356153960    0.1500
     22 F22        -0.9987    0.4259   49.9430 F       1  ZINC001356153960   -0.1200
     23 C23        -4.9577    3.9041   50.1619 C.3     1  ZINC001356153960    0.0700
     24 C24        -4.3585    5.1682   50.7817 C.3     1  ZINC001356153960   -0.1900
     25 C25        -5.6352    4.5594   51.3671 C.3     1  ZINC001356153960   -0.1800
     26 H26        -6.3992    1.5124   52.9163 H       1  ZINC001356153960    0.4100
     27 H27        -8.6791    2.4359   52.9935 H       1  ZINC001356153960    0.0800
     28 H28        -8.8873    1.8441   51.3277 H       1  ZINC001356153960    0.0800
     29 H29        -7.7458    0.4681   54.7934 H       1  ZINC001356153960    0.1200
     30 H30        -9.7723   -0.4193   56.0149 H       1  ZINC001356153960    0.1300
     31 H31       -10.9350   -1.6061   53.7912 H       1  ZINC001356153960    0.0800
     32 H32       -11.7973   -0.1581   54.3931 H       1  ZINC001356153960    0.0700
     33 H33       -10.9213    1.2187   52.6822 H       1  ZINC001356153960    0.0800
     34 H34       -10.7623   -0.3427   51.8090 H       1  ZINC001356153960    0.0800
     35 H35        -2.3805    3.5817   50.2811 H       1  ZINC001356153960    0.0900
     36 H36        -2.3713    1.9644   51.0243 H       1  ZINC001356153960    0.1400
     37 H37        -3.7538    3.2727   47.8018 H       1  ZINC001356153960    0.1600
     38 H38        -3.2040    2.2808   45.6169 H       1  ZINC001356153960    0.1400
     39 H39        -0.5695   -0.4783   47.5319 H       1  ZINC001356153960    0.1500
     40 H40        -5.4485    4.0023   49.1937 H       1  ZINC001356153960    0.1400
     41 H41        -3.4391    5.0595   51.3570 H       1  ZINC001356153960    0.1400
     42 H42        -4.4556    6.0980   50.2213 H       1  ZINC001356153960    0.0900
     43 H43        -6.5716    5.0890   51.1915 H       1  ZINC001356153960    0.1000
     44 H44        -5.5557    4.0502   52.3276 H       1  ZINC001356153960    0.0900
@<TRIPOS>BOND
     1     1     2    2
     2     2     3   am
     3     2    11    1
     4     3     4    1
     5     3    26    1
     6     4     5    1
     7     4    27    1
     8     4    28    1
     9     5     6    1
    10     5    10    1
    11     5     7    1
    12     7     8    2
    13     7    29    1
    14     8     9    1
    15     8    30    1
    16     9    10    1
    17     9    31    1
    18     9    32    1
    19    10    33    1
    20    10    34    1
    21    11    12    2
    22    11    13   am
    23    13    14    1
    24    13    23    1
    25    14    15    1
    26    14    35    1
    27    14    36    1
    28    15    21   ar
    29    15    16   ar
    30    16    17   ar
    31    16    37    1
    32    17    18   ar
    33    17    38    1
    34    18    19    1
    35    18    20   ar
    36    20    21   ar
    37    20    39    1
    38    21    22    1
    39    23    25    1
    40    23    24    1
    41    23    40    1
    42    24    25    1
    43    24    41    1
    44    24    42    1
    45    25    43    1
    46    25    44    1
@<TRIPOS>SUBSTRUCTURE
     1 ZINC001356153960        1 TEMP              0 ****  ****    0 ROOT


##########                                Name:    ZINC000673213454
##########                DOCK_Rotatable_Bonds:                   7
##########                         Heavy_Atoms:                  26
##########                    Molecular_Weight:             360.453
##########                DOCK_Rotatable_Bonds:                   7
##########                       Formal_Charge:          -0.0100001
##########                     HBond_Acceptors:                   6
##########                        HBond_Donors:                   1
##########                         Heavy_Atoms:                  26
##########                          Grid_Score:          -29.310333
##########                     Grid_vdw_energy:          -28.486446
##########                      Grid_es_energy:           -0.823886
##########           Internal_energy_repulsive:           20.736450

@<TRIPOS>MOLECULE
ZINC000673213454
 54 56 1 0 0
SMALL
USER_CHARGES


@<TRIPOS>ATOM
      1 C1        -10.5069    3.3283   58.9212 C.3     1  ZINC000673213454   -0.1700
      2 C2        -10.1386    1.8841   58.5752 C.3     1  ZINC000673213454    0.1400
      3 H3         -9.5386    1.4595   59.3801 H       1  ZINC000673213454    0.0900
      4 C4         -9.3353    1.8605   57.2733 C.3     1  ZINC000673213454   -0.1200
      5 C5         -7.9819    2.5382   57.4967 C.3     1  ZINC000673213454   -0.1300
      6 H6         -8.1216    3.5673   57.8274 H       1  ZINC000673213454    0.0800
      7 C7         -7.1342    2.4952   56.2020 C.3     1  ZINC000673213454   -0.1500
      8 C8         -5.7187    2.1833   56.7510 C.3     1  ZINC000673213454    0.0500
      9 O9         -5.9735    1.2708   57.8406 O.3     1  ZINC000673213454   -0.3800
     10 C10        -7.1472    1.7499   58.5247 C.3     1  ZINC000673213454    0.0500
     11 N11       -11.3615    1.0948   58.4090 N.am    1  ZINC000673213454   -0.6900
     12 C12       -11.8785    0.4243   59.4576 C.2     1  ZINC000673213454    0.5100
     13 O13       -11.3320    0.4757   60.5398 O.2     1  ZINC000673213454   -0.5100
     14 C14       -13.1250   -0.3825   59.2876 C.2     1  ZINC000673213454    0.5000
     15 O15       -14.1950    0.1746   59.1549 O.2     1  ZINC000673213454   -0.5200
     16 N16       -13.0609   -1.7287   59.2814 N.am    1  ZINC000673213454   -0.5800
     17 C17       -14.3081   -2.4978   59.1117 C.3     1  ZINC000673213454    0.1100
     18 C18       -14.0965   -3.6893   58.1661 C.3     1  ZINC000673213454   -0.1700
     19 C19       -13.2053   -3.2710   57.0140 C.3     1  ZINC000673213454    0.0800
     20 O20       -11.8534   -3.5428   57.3598 O.3     1  ZINC000673213454   -0.3800
     21 C21       -11.1265   -2.5951   58.0515 C.3     1  ZINC000673213454    0.1500
     22 H22       -11.1262   -1.6589   57.4934 H       1  ZINC000673213454    0.0600
     23 C23        -9.7093   -3.0772   58.2247 C.ar    1  ZINC000673213454   -0.0800
     24 C24        -8.6863   -2.1655   58.4062 C.ar    1  ZINC000673213454   -0.0900
     25 C25        -7.3863   -2.6077   58.5651 C.ar    1  ZINC000673213454   -0.1300
     26 C26        -7.1093   -3.9618   58.5427 C.ar    1  ZINC000673213454   -0.1200
     27 C27        -8.1324   -4.8737   58.3620 C.ar    1  ZINC000673213454   -0.1300
     28 C28        -9.4330   -4.4316   58.2075 C.ar    1  ZINC000673213454   -0.0900
     29 C29       -11.7667   -2.3667   59.4362 C.3     1  ZINC000673213454    0.0700
     30 H30       -11.1069    3.7530   58.1163 H       1  ZINC000673213454    0.0600
     31 H31       -11.0792    3.3452   59.8487 H       1  ZINC000673213454    0.0600
     32 H32        -9.5971    3.9157   59.0448 H       1  ZINC000673213454    0.0700
     33 H33        -9.1776    0.8277   56.9625 H       1  ZINC000673213454    0.0800
     34 H34        -9.8849    2.3935   56.4975 H       1  ZINC000673213454    0.0900
     35 H35        -7.4777    1.7018   55.5383 H       1  ZINC000673213454    0.0800
     36 H36        -7.1506    3.4595   55.6943 H       1  ZINC000673213454    0.0800
     37 H37        -5.1068    1.7058   55.9857 H       1  ZINC000673213454    0.0900
     38 H38        -5.2394    3.0919   57.1154 H       1  ZINC000673213454    0.0600
     39 H39        -6.8560    2.4019   59.3482 H       1  ZINC000673213454    0.0600
     40 H40        -7.7255    0.9071   58.9033 H       1  ZINC000673213454    0.0900
     41 H41       -11.7990    1.0546   57.5443 H       1  ZINC000673213454    0.4100
     42 H42       -14.6363   -2.8662   60.0836 H       1  ZINC000673213454    0.0800
     43 H43       -15.0775   -1.8454   58.6988 H       1  ZINC000673213454    0.0900
     44 H44       -13.6248   -4.5064   58.7118 H       1  ZINC000673213454    0.0800
     45 H45       -15.0597   -4.0204   57.7782 H       1  ZINC000673213454    0.0900
     46 H46       -13.4744   -3.8346   56.1206 H       1  ZINC000673213454    0.1000
     47 H47       -13.3271   -2.2042   56.8263 H       1  ZINC000673213454    0.0500
     48 H48        -8.9027   -1.1075   58.4238 H       1  ZINC000673213454    0.1300
     49 H49        -6.5870   -1.8952   58.7063 H       1  ZINC000673213454    0.1200
     50 H50        -6.0936   -4.3074   58.6661 H       1  ZINC000673213454    0.1200
     51 H51        -7.9160   -5.9317   58.3442 H       1  ZINC000673213454    0.1200
     52 H52       -10.2323   -5.1441   58.0663 H       1  ZINC000673213454    0.1300
     53 H53       -11.1183   -1.7269   60.0349 H       1  ZINC000673213454    0.1200
     54 H54       -11.8956   -3.3251   59.9392 H       1  ZINC000673213454    0.0800
@<TRIPOS>BOND
     1     1     2    1
     2     1    30    1
     3     1    31    1
     4     1    32    1
     5     2     3    1
     6     2     4    1
     7     2    11    1
     8     4     5    1
     9     4    33    1
    10     4    34    1
    11     5     6    1
    12     5    10    1
    13     5     7    1
    14     7     8    1
    15     7    35    1
    16     7    36    1
    17     8     9    1
    18     8    37    1
    19     8    38    1
    20     9    10    1
    21    10    39    1
    22    10    40    1
    23    11    12   am
    24    11    41    1
    25    12    13    2
    26    12    14    1
    27    14    15    2
    28    14    16   am
    29    16    29    1
    30    16    17    1
    31    17    18    1
    32    17    42    1
    33    17    43    1
    34    18    19    1
    35    18    44    1
    36    18    45    1
    37    19    20    1
    38    19    46    1
    39    19    47    1
    40    20    21    1
    41    21    22    1
    42    21    23    1
    43    21    29    1
    44    23    28   ar
    45    23    24   ar
    46    24    25   ar
    47    24    48    1
    48    25    26   ar
    49    25    49    1
    50    26    27   ar
    51    26    50    1
    52    27    28   ar
    53    27    51    1
    54    28    52    1
    55    29    53    1
    56    29    54    1
@<TRIPOS>SUBSTRUCTURE
     1 ZINC000673213454        1 TEMP              0 ****  ****    0 ROOT


##########                                Name:    ZINC000951315041
##########                DOCK_Rotatable_Bonds:                   5
##########                         Heavy_Atoms:                  25
##########                    Molecular_Weight:             340.382
##########                DOCK_Rotatable_Bonds:                   5
##########                       Formal_Charge:          0.00999974
##########                     HBond_Acceptors:                   7
##########                        HBond_Donors:                   1
##########                         Heavy_Atoms:                  25
##########                          Grid_Score:          -29.308226
##########                     Grid_vdw_energy:          -26.828735
##########                      Grid_es_energy:           -2.479491
##########           Internal_energy_repulsive:            9.832444

@<TRIPOS>MOLECULE
ZINC000951315041
 45 47 1 0 0
SMALL
USER_CHARGES


@<TRIPOS>ATOM
      1 C1         -6.3229   -3.7389   58.8359 C.3     1  ZINC000951315041    0.0500
      2 N2         -7.4271   -2.8352   58.5040 N.am    1  ZINC000951315041   -0.4900
      3 C3         -7.4349   -1.5865   59.0065 C.2     1  ZINC000951315041    0.1700
      4 C4         -8.4652   -0.7186   58.7074 C.2     1  ZINC000951315041   -0.2400
      5 C5         -8.4693    0.6484   59.2604 C.2     1  ZINC000951315041    0.5800
      6 O6         -9.1248    0.9008   60.2531 O.2     1  ZINC000951315041   -0.5200
      7 N7         -7.7466    1.6181   58.6656 N.am    1  ZINC000951315041   -0.6000
      8 C8         -7.7407    2.9848   59.2047 C.3     1  ZINC000951315041    0.1100
      9 C9         -8.1192    3.9585   58.0843 C.3     1  ZINC000951315041   -0.1300
     10 C10        -7.1815    3.7487   56.8932 C.3     1  ZINC000951315041   -0.1300
     11 C11        -7.3367    2.3207   56.3650 C.3     1  ZINC000951315041    0.1300
     12 H12        -8.3727    2.1520   56.0712 H       1  ZINC000951315041    0.1000
     13 N13        -6.4625    2.1308   55.2049 N.am    1  ZINC000951315041   -0.7200
     14 C14        -6.9091    2.4284   53.9686 C.2     1  ZINC000951315041    0.5700
     15 O15        -8.0378    2.8531   53.8161 O.2     1  ZINC000951315041   -0.5200
     16 C16        -6.0262    2.2385   52.7980 C.ar    1  ZINC000951315041   -0.1900
     17 C17        -4.6965    1.8353   52.9674 C.ar    1  ZINC000951315041   -0.0100
     18 C18        -3.9120    1.6713   51.8391 C.ar    1  ZINC000951315041   -0.1800
     19 C19        -4.4614    1.9087   50.5923 C.ar    1  ZINC000951315041    0.1300
     20 N20        -5.7185    2.2884   50.4629 N.ar    1  ZINC000951315041   -0.4900
     21 C21        -6.5062    2.4524   51.5052 C.ar    1  ZINC000951315041    0.1400
     22 C22        -6.9448    1.3271   57.4692 C.3     1  ZINC000951315041    0.1000
     23 C23        -9.5182   -1.1506   57.8651 C.2     1  ZINC000951315041    0.0100
     24 C24        -9.4886   -2.4163   57.3689 C.2     1  ZINC000951315041   -0.2300
     25 C25        -8.4145   -3.2646   57.6974 C.2     1  ZINC000951315041    0.5100
     26 O26        -8.3832   -4.4006   57.2545 O.2     1  ZINC000951315041   -0.5400
     27 H27        -6.4776   -4.6982   58.3419 H       1  ZINC000951315041    0.1100
     28 H28        -5.3827   -3.3034   58.4974 H       1  ZINC000951315041    0.0800
     29 H29        -6.2868   -3.8875   59.9150 H       1  ZINC000951315041    0.0800
     30 H30        -6.6295   -1.2619   59.6485 H       1  ZINC000951315041    0.1700
     31 H31        -8.4653    3.0610   60.0154 H       1  ZINC000951315041    0.1000
     32 H32        -6.7454    3.2262   59.5778 H       1  ZINC000951315041    0.0700
     33 H33        -9.1478    3.7744   57.7744 H       1  ZINC000951315041    0.0700
     34 H34        -8.0253    4.9827   58.4452 H       1  ZINC000951315041    0.0900
     35 H35        -7.4330    4.4571   56.1039 H       1  ZINC000951315041    0.0800
     36 H36        -6.1508    3.9088   57.2097 H       1  ZINC000951315041    0.0700
     37 H37        -5.5622    1.7908   55.3265 H       1  ZINC000951315041    0.4000
     38 H38        -4.2930    1.6571   53.9533 H       1  ZINC000951315041    0.1500
     39 H39        -2.8815    1.3616   51.9314 H       1  ZINC000951315041    0.1500
     40 H40        -3.8515    1.7816   49.7101 H       1  ZINC000951315041    0.1600
     41 H41        -7.5299    2.7640   51.3588 H       1  ZINC000951315041    0.1600
     42 H42        -5.8846    1.4348   57.6983 H       1  ZINC000951315041    0.0700
     43 H43        -7.1469    0.3099   57.1340 H       1  ZINC000951315041    0.0900
     44 H44       -10.3328   -0.4850   57.6207 H       1  ZINC000951315041    0.1400
     45 H45       -10.2816   -2.7668   56.7248 H       1  ZINC000951315041    0.1600
@<TRIPOS>BOND
     1     1     2    1
     2     1    27    1
     3     1    28    1
     4     1    29    1
     5     2    25   am
     6     2     3    1
     7     3     4    2
     8     3    30    1
     9     4     5    1
    10     4    23    1
    11     5     6    2
    12     5     7   am
    13     7    22    1
    14     7     8    1
    15     8     9    1
    16     8    31    1
    17     8    32    1
    18     9    10    1
    19     9    33    1
    20     9    34    1
    21    10    11    1
    22    10    35    1
    23    10    36    1
    24    11    12    1
    25    11    13    1
    26    11    22    1
    27    13    14   am
    28    13    37    1
    29    14    15    2
    30    14    16    1
    31    16    21   ar
    32    16    17   ar
    33    17    18   ar
    34    17    38    1
    35    18    19   ar
    36    18    39    1
    37    19    20   ar
    38    19    40    1
    39    20    21   ar
    40    21    41    1
    41    22    42    1
    42    22    43    1
    43    23    24    2
    44    23    44    1
    45    24    25    1
    46    24    45    1
    47    25    26    2
@<TRIPOS>SUBSTRUCTURE
     1 ZINC000951315041        1 TEMP              0 ****  ****    0 ROOT


##########                                Name:    ZINC001400108193
##########                DOCK_Rotatable_Bonds:                   9
##########                         Heavy_Atoms:                  25
##########                    Molecular_Weight:              344.41
##########                DOCK_Rotatable_Bonds:                   9
##########                       Formal_Charge:           0.0200001
##########                     HBond_Acceptors:                   6
##########                        HBond_Donors:                   2
##########                         Heavy_Atoms:                  25
##########                          Grid_Score:          -29.303001
##########                     Grid_vdw_energy:          -28.097218
##########                      Grid_es_energy:           -1.205784
##########           Internal_energy_repulsive:            5.383688

@<TRIPOS>MOLECULE
ZINC001400108193
 49 50 1 0 0
SMALL
USER_CHARGES


@<TRIPOS>ATOM
      1 C1         -3.6367    3.6426   49.5214 C.3     1  ZINC001400108193   -0.0800
      2 C2         -4.0232    3.1540   50.8936 C.2     1  ZINC001400108193   -0.0100
      3 C3         -5.2789    2.9669   51.3277 C.2     1  ZINC001400108193   -0.1600
      4 C4         -5.1606    2.4883   52.7128 C.2     1  ZINC001400108193   -0.2300
      5 C5         -6.2587    2.1373   53.6310 C.2     1  ZINC001400108193    0.5900
      6 O6         -7.4091    2.1519   53.2367 O.2     1  ZINC001400108193   -0.5300
      7 N7         -5.9880    1.8001   54.9075 N.am    1  ZINC001400108193   -0.7300
      8 C8         -7.0797    1.4529   55.8206 C.3     1  ZINC001400108193    0.1100
      9 C9         -6.6375    1.7051   57.2634 C.3     1  ZINC001400108193    0.1300
     10 H10        -5.6735    1.2268   57.4368 H       1  ZINC001400108193    0.1000
     11 C11        -6.5099    3.2110   57.5020 C.3     1  ZINC001400108193   -0.1600
     12 N12        -7.6318    1.1474   58.1836 N.am    1  ZINC001400108193   -0.7300
     13 C13        -7.4782   -0.1018   58.6654 C.2     1  ZINC001400108193    0.5200
     14 O14        -6.5159   -0.7638   58.3386 O.2     1  ZINC001400108193   -0.5100
     15 C15        -8.5020   -0.6761   59.6105 C.3     1  ZINC001400108193    0.0700
     16 H16        -8.5093   -1.7625   59.5218 H       1  ZINC001400108193    0.1000
     17 C17        -8.1471   -0.2841   61.0463 C.3     1  ZINC001400108193   -0.1800
     18 O18        -9.7944   -0.1626   59.2822 O.3     1  ZINC001400108193   -0.2800
     19 C19       -10.7435   -1.0656   58.9206 C.ar    1  ZINC001400108193    0.1200
     20 C20       -10.8739   -1.4422   57.5918 C.ar    1  ZINC001400108193   -0.2100
     21 C21       -11.8391   -2.3607   57.2270 C.ar    1  ZINC001400108193   -0.0800
     22 C22       -12.6782   -2.9006   58.1841 C.ar    1  ZINC001400108193   -0.1200
     23 C23       -13.7344   -3.8978   57.7823 C.3     1  ZINC001400108193   -0.1100
     24 C24       -12.5468   -2.5309   59.5099 C.ar    1  ZINC001400108193   -0.0800
     25 C25       -11.5831   -1.6129   59.8799 C.ar    1  ZINC001400108193   -0.1400
     26 C26        -3.8222    2.4427   52.9725 C.2     1  ZINC001400108193    0.0200
     27 O27        -3.1663    2.8366   51.8766 O.3     1  ZINC001400108193   -0.1700
     28 H28        -3.5713    4.7306   49.5282 H       1  ZINC001400108193    0.0900
     29 H29        -2.6696    3.2223   49.2450 H       1  ZINC001400108193    0.0800
     30 H30        -4.3894    3.3283   48.7984 H       1  ZINC001400108193    0.0900
     31 H31        -6.1904    3.1335   50.7728 H       1  ZINC001400108193    0.1600
     32 H32        -5.0703    1.7873   55.2216 H       1  ZINC001400108193    0.4000
     33 H33        -7.3355    0.4005   55.6977 H       1  ZINC001400108193    0.0800
     34 H34        -7.9513    2.0673   55.5951 H       1  ZINC001400108193    0.0900
     35 H35        -6.1948    3.3906   58.5298 H       1  ZINC001400108193    0.0700
     36 H36        -5.7701    3.6258   56.8174 H       1  ZINC001400108193    0.0700
     37 H37        -7.4739    3.6893   57.3286 H       1  ZINC001400108193    0.0600
     38 H38        -8.4008    1.6773   58.4459 H       1  ZINC001400108193    0.4000
     39 H39        -7.1613   -0.6757   61.2968 H       1  ZINC001400108193    0.0800
     40 H40        -8.1399    0.8022   61.1350 H       1  ZINC001400108193    0.0800
     41 H41        -8.8876   -0.6995   61.7299 H       1  ZINC001400108193    0.0800
     42 H42       -10.2217   -1.0173   56.8432 H       1  ZINC001400108193    0.1300
     43 H43       -11.9413   -2.6539   56.1926 H       1  ZINC001400108193    0.1300
     44 H44       -13.3224   -4.9053   57.8371 H       1  ZINC001400108193    0.0700
     45 H45       -14.5863   -3.8164   58.4573 H       1  ZINC001400108193    0.0700
     46 H46       -14.0583   -3.6926   56.7619 H       1  ZINC001400108193    0.0700
     47 H47       -13.2007   -2.9572   60.2563 H       1  ZINC001400108193    0.1300
     48 H48       -11.4833   -1.3216   60.9151 H       1  ZINC001400108193    0.1300
     49 H49        -3.3694    2.1376   53.9043 H       1  ZINC001400108193    0.2100
@<TRIPOS>BOND
     1     1     2    1
     2     1    28    1
     3     1    29    1
     4     1    30    1
     5     2    27    1
     6     2     3    2
     7     3     4    1
     8     3    31    1
     9     4     5    1
    10     4    26    2
    11     5     6    2
    12     5     7   am
    13     7     8    1
    14     7    32    1
    15     8     9    1
    16     8    33    1
    17     8    34    1
    18     9    10    1
    19     9    11    1
    20     9    12    1
    21    11    35    1
    22    11    36    1
    23    11    37    1
    24    12    13   am
    25    12    38    1
    26    13    14    2
    27    13    15    1
    28    15    16    1
    29    15    17    1
    30    15    18    1
    31    17    39    1
    32    17    40    1
    33    17    41    1
    34    18    19    1
    35    19    25   ar
    36    19    20   ar
    37    20    21   ar
    38    20    42    1
    39    21    22   ar
    40    21    43    1
    41    22    23    1
    42    22    24   ar
    43    23    44    1
    44    23    45    1
    45    23    46    1
    46    24    25   ar
    47    24    47    1
    48    25    48    1
    49    26    27    1
    50    26    49    1
@<TRIPOS>SUBSTRUCTURE
     1 ZINC001400108193        1 TEMP              0 ****  ****    0 ROOT


##########                                Name:    ZINC000156038173
##########                DOCK_Rotatable_Bonds:                  10
##########                         Heavy_Atoms:                  27
##########                    Molecular_Weight:             396.357
##########                DOCK_Rotatable_Bonds:                  10
##########                       Formal_Charge:         -0.00999981
##########                     HBond_Acceptors:                  10
##########                        HBond_Donors:                   1
##########                         Heavy_Atoms:                  27
##########                          Grid_Score:          -29.279270
##########                     Grid_vdw_energy:          -29.655361
##########                      Grid_es_energy:            0.376092
##########           Internal_energy_repulsive:           35.486496

@<TRIPOS>MOLECULE
ZINC000156038173
 48 48 1 0 0
SMALL
USER_CHARGES


@<TRIPOS>ATOM
      1 C1         -3.9503    2.2185   52.1029 C.3     1  ZINC000156038173    0.0700
      2 N2         -4.6115    2.5723   50.8444 N.am    1  ZINC000156038173   -0.6300
      3 C3         -6.0710    2.6874   50.7909 C.3     1  ZINC000156038173    0.1500
      4 C4         -6.6963    1.2943   50.8856 C.3     1  ZINC000156038173   -0.1400
      5 C5         -7.9388    1.3581   51.7360 C.2     1  ZINC000156038173    0.4700
      6 O6         -8.7481    2.2374   51.5581 O.2     1  ZINC000156038173   -0.5000
      7 O7         -8.1464    0.4381   52.6912 O.3     1  ZINC000156038173   -0.3500
      8 C8         -8.8695    0.8681   53.8746 C.3     1  ZINC000156038173    0.1200
      9 C9        -10.3529    1.0281   53.5357 C.3     1  ZINC000156038173   -0.1800
     10 C10        -8.7087   -0.1785   54.9789 C.3     1  ZINC000156038173   -0.1400
     11 C11        -8.3090    2.2078   54.3560 C.3     1  ZINC000156038173   -0.1800
     12 C12        -3.8771    2.7920   49.7359 C.2     1  ZINC000156038173    0.7100
     13 O13        -4.4257    3.0872   48.6918 O.2     1  ZINC000156038173   -0.5700
     14 N14        -2.5346    2.6846   49.7847 N.am    1  ZINC000156038173   -0.7400
     15 C15        -1.7361    2.9251   48.5802 C.3     1  ZINC000156038173    0.1700
     16 H16        -2.1636    3.7575   48.0211 H       1  ZINC000156038173    0.1500
     17 C17        -1.7395    1.6878   47.7199 C.ar    1  ZINC000156038173   -0.1300
     18 C18        -1.9582    1.7929   46.3592 C.ar    1  ZINC000156038173   -0.0700
     19 C19        -1.9616    0.6588   45.5685 C.ar    1  ZINC000156038173   -0.1000
     20 C20        -1.7465   -0.5825   46.1370 C.ar    1  ZINC000156038173   -0.1100
     21 C21        -1.5273   -0.6911   47.4993 C.ar    1  ZINC000156038173    0.0700
     22 F22        -1.3170   -1.9041   48.0558 F       1  ZINC000156038173   -0.1200
     23 C23        -1.5181    0.4468   48.2914 C.ar    1  ZINC000156038173    0.1000
     24 F24        -1.3045    0.3432   49.6213 F       1  ZINC000156038173   -0.1200
     25 C25        -0.2988    3.2641   48.9803 C.3     1  ZINC000156038173    0.4500
     26 F26         0.5164    3.2538   47.8434 F       1  ZINC000156038173   -0.1700
     27 F27        -0.2651    4.5337   49.5669 F       1  ZINC000156038173   -0.1600
     28 F28         0.1666    2.3146   49.8964 F       1  ZINC000156038173   -0.1700
     29 H29        -3.8559    1.1348   52.1715 H       1  ZINC000156038173    0.0600
     30 H30        -2.9596    2.6721   52.1329 H       1  ZINC000156038173    0.0700
     31 H31        -4.5434    2.5852   52.9406 H       1  ZINC000156038173    0.0800
     32 H32        -6.4180    3.2988   51.6240 H       1  ZINC000156038173    0.1000
     33 H33        -6.3644    3.1543   49.8507 H       1  ZINC000156038173    0.0900
     34 H34        -6.9572    0.9444   49.8868 H       1  ZINC000156038173    0.1100
     35 H35        -5.9821    0.6054   51.3368 H       1  ZINC000156038173    0.1100
     36 H36       -10.7523    0.0737   53.1927 H       1  ZINC000156038173    0.0600
     37 H37       -10.8958    1.3509   54.4242 H       1  ZINC000156038173    0.0700
     38 H38       -10.4675    1.7737   52.7490 H       1  ZINC000156038173    0.0800
     39 H39        -7.6519   -0.2925   55.2203 H       1  ZINC000156038173    0.0700
     40 H40        -9.2515    0.1442   55.8673 H       1  ZINC000156038173    0.0800
     41 H41        -9.1080   -1.1330   54.6358 H       1  ZINC000156038173    0.0700
     42 H42        -8.4236    2.9534   53.5693 H       1  ZINC000156038173    0.0800
     43 H43        -8.8519    2.5306   55.2445 H       1  ZINC000156038173    0.0700
     44 H44        -7.2521    2.0938   54.5975 H       1  ZINC000156038173    0.0600
     45 H45        -2.0969    2.4479   50.6174 H       1  ZINC000156038173    0.4100
     46 H46        -2.1268    2.7620   45.9132 H       1  ZINC000156038173    0.1400
     47 H47        -2.1330    0.7428   44.5055 H       1  ZINC000156038173    0.1500
     48 H48        -1.7499   -1.4677   45.5183 H       1  ZINC000156038173    0.1500
@<TRIPOS>BOND
     1     1     2    1
     2     1    29    1
     3     1    30    1
     4     1    31    1
     5     2     3    1
     6     2    12   am
     7     3     4    1
     8     3    32    1
     9     3    33    1
    10     4     5    1
    11     4    34    1
    12     4    35    1
    13     5     6    2
    14     5     7    1
    15     7     8    1
    16     8     9    1
    17     8    10    1
    18     8    11    1
    19     9    36    1
    20     9    37    1
    21     9    38    1
    22    10    39    1
    23    10    40    1
    24    10    41    1
    25    11    42    1
    26    11    43    1
    27    11    44    1
    28    12    13    2
    29    12    14   am
    30    14    15    1
    31    14    45    1
    32    15    16    1
    33    15    17    1
    34    15    25    1
    35    17    23   ar
    36    17    18   ar
    37    18    19   ar
    38    18    46    1
    39    19    20   ar
    40    19    47    1
    41    20    21   ar
    42    20    48    1
    43    21    22    1
    44    21    23   ar
    45    23    24    1
    46    25    26    1
    47    25    27    1
    48    25    28    1
@<TRIPOS>SUBSTRUCTURE
     1 ZINC000156038173        1 TEMP              0 ****  ****    0 ROOT


##########                                Name:    ZINC001082278299
##########                DOCK_Rotatable_Bonds:                   9
##########                         Heavy_Atoms:                  25
##########                    Molecular_Weight:              346.47
##########                DOCK_Rotatable_Bonds:                   9
##########                       Formal_Charge:           0.0200001
##########                     HBond_Acceptors:                   5
##########                        HBond_Donors:                   1
##########                         Heavy_Atoms:                  25
##########                          Grid_Score:          -29.274998
##########                     Grid_vdw_energy:          -27.551155
##########                      Grid_es_energy:           -1.723843
##########           Internal_energy_repulsive:           84.867332

@<TRIPOS>MOLECULE
ZINC001082278299
 55 57 1 0 0
SMALL
USER_CHARGES


@<TRIPOS>ATOM
      1 C1        -15.7358   -0.5608   58.7556 C.3     1  ZINC001082278299   -0.1300
      2 C2        -15.6389   -1.9867   58.2778 C.2     1  ZINC001082278299    0.0000
      3 C3        -14.6100   -2.7437   58.6481 C.2     1  ZINC001082278299   -0.2300
      4 C4        -13.5665   -2.1893   59.5241 C.2     1  ZINC001082278299    0.5400
      5 O5        -13.4888   -2.5521   60.6822 O.2     1  ZINC001082278299   -0.5300
      6 N6        -12.6964   -1.2792   59.0432 N.am    1  ZINC001082278299   -0.7400
      7 C7        -11.6583   -0.7257   59.9162 C.3     1  ZINC001082278299    0.1300
      8 C8        -10.4477   -0.3183   59.0739 C.3     1  ZINC001082278299    0.1400
      9 H9        -10.7307    0.4827   58.3910 H       1  ZINC001082278299    0.0800
     10 C10        -9.9503   -1.5251   58.2722 C.3     1  ZINC001082278299   -0.1300
     11 C11        -8.6594   -1.1497   57.5409 C.3     1  ZINC001082278299   -0.1200
     12 C12        -7.5841   -0.7719   58.5620 C.3     1  ZINC001082278299   -0.1400
     13 C13        -8.0546    0.4436   59.3671 C.3     1  ZINC001082278299    0.1100
     14 N14        -9.3676    0.1449   59.9557 N.am    1  ZINC001082278299   -0.6100
     15 C15        -9.5752    0.2883   61.2797 C.2     1  ZINC001082278299    0.5100
     16 O16       -10.6634    0.0387   61.7534 O.2     1  ZINC001082278299   -0.5100
     17 C17        -8.4552    0.7588   62.1715 C.3     1  ZINC001082278299   -0.1100
     18 C18        -8.9458    0.8394   63.5940 C.2     1  ZINC001082278299   -0.0900
     19 C19        -9.5892    1.9031   63.9741 C.2     1  ZINC001082278299   -0.1800
     20 C20       -10.1109    2.0847   65.3711 C.3     1  ZINC001082278299    0.0900
     21 O21       -10.1219    0.8321   66.0588 O.3     1  ZINC001082278299   -0.3800
     22 C22        -8.8739    0.1333   65.9705 C.3     1  ZINC001082278299    0.0600
     23 C23        -8.6778   -0.3163   64.5181 C.3     1  ZINC001082278299   -0.1100
     24 C24       -16.7079   -2.5549   57.3803 C.3     1  ZINC001082278299   -0.1200
     25 C25       -18.1656   -2.3026   57.7706 C.3     1  ZINC001082278299   -0.1900
     26 C26       -17.5548   -1.5661   56.5767 C.3     1  ZINC001082278299   -0.1500
     27 H27       -15.2323    0.0953   58.0454 H       1  ZINC001082278299    0.0800
     28 H28       -16.7845   -0.2744   58.8343 H       1  ZINC001082278299    0.0800
     29 H29       -15.2605   -0.4719   59.7325 H       1  ZINC001082278299    0.0700
     30 H30       -14.5408   -3.7657   58.3056 H       1  ZINC001082278299    0.1300
     31 H31       -12.7578   -0.9906   58.1192 H       1  ZINC001082278299    0.3900
     32 H32       -12.0494    0.1484   60.4368 H       1  ZINC001082278299    0.0900
     33 H33       -11.3572   -1.4781   60.6450 H       1  ZINC001082278299    0.0800
     34 H34        -9.7561   -2.3568   58.9494 H       1  ZINC001082278299    0.0700
     35 H35       -10.7086   -1.8166   57.5454 H       1  ZINC001082278299    0.0800
     36 H36        -8.3167   -1.9991   56.9500 H       1  ZINC001082278299    0.0700
     37 H37        -8.8485   -0.3021   56.8822 H       1  ZINC001082278299    0.0700
     38 H38        -7.4120   -1.6107   59.2365 H       1  ZINC001082278299    0.0700
     39 H39        -6.6581   -0.5272   58.0416 H       1  ZINC001082278299    0.0800
     40 H40        -7.3381    0.6560   60.1605 H       1  ZINC001082278299    0.0900
     41 H41        -8.1399    1.3076   58.7081 H       1  ZINC001082278299    0.0700
     42 H42        -7.6244    0.0557   62.1128 H       1  ZINC001082278299    0.1000
     43 H43        -8.1211    1.7440   61.8460 H       1  ZINC001082278299    0.1000
     44 H44        -9.7556    2.6908   63.2541 H       1  ZINC001082278299    0.1100
     45 H45        -9.4712    2.7858   65.9073 H       1  ZINC001082278299    0.0600
     46 H46       -11.1246    2.4830   65.3293 H       1  ZINC001082278299    0.1000
     47 H47        -8.0605    0.7956   66.2669 H       1  ZINC001082278299    0.0600
     48 H48        -8.8945   -0.7388   66.6239 H       1  ZINC001082278299    0.1000
     49 H49        -9.3636   -1.1338   64.2954 H       1  ZINC001082278299    0.0800
     50 H50        -7.6514   -0.6559   64.3788 H       1  ZINC001082278299    0.0800
     51 H51       -16.4700   -3.5102   56.9123 H       1  ZINC001082278299    0.1300
     52 H52       -18.8870   -3.0919   57.5596 H       1  ZINC001082278299    0.1000
     53 H53       -18.3514   -1.7256   58.6765 H       1  ZINC001082278299    0.1000
     54 H54       -17.3388   -0.5045   56.6972 H       1  ZINC001082278299    0.0900
     55 H55       -17.8744   -1.8708   55.5802 H       1  ZINC001082278299    0.1000
@<TRIPOS>BOND
     1     1     2    1
     2     1    27    1
     3     1    28    1
     4     1    29    1
     5     2     3    2
     6     2    24    1
     7     3     4    1
     8     3    30    1
     9     4     5    2
    10     4     6   am
    11     6     7    1
    12     6    31    1
    13     7     8    1
    14     7    32    1
    15     7    33    1
    16     8     9    1
    17     8    14    1
    18     8    10    1
    19    10    11    1
    20    10    34    1
    21    10    35    1
    22    11    12    1
    23    11    36    1
    24    11    37    1
    25    12    13    1
    26    12    38    1
    27    12    39    1
    28    13    14    1
    29    13    40    1
    30    13    41    1
    31    14    15   am
    32    15    16    2
    33    15    17    1
    34    17    18    1
    35    17    42    1
    36    17    43    1
    37    18    23    1
    38    18    19    2
    39    19    20    1
    40    19    44    1
    41    20    21    1
    42    20    45    1
    43    20    46    1
    44    21    22    1
    45    22    23    1
    46    22    47    1
    47    22    48    1
    48    23    49    1
    49    23    50    1
    50    24    26    1
    51    24    25    1
    52    24    51    1
    53    25    26    1
    54    25    52    1
    55    25    53    1
    56    26    54    1
    57    26    55    1
@<TRIPOS>SUBSTRUCTURE
     1 ZINC001082278299        1 TEMP              0 ****  ****    0 ROOT


##########                                Name:    ZINC001039666729
##########                DOCK_Rotatable_Bonds:                   3
##########                         Heavy_Atoms:                  25
##########                    Molecular_Weight:             344.376
##########                DOCK_Rotatable_Bonds:                   3
##########                       Formal_Charge:          -0.0199998
##########                     HBond_Acceptors:                  10
##########                        HBond_Donors:                   2
##########                         Heavy_Atoms:                  25
##########                          Grid_Score:          -29.269913
##########                     Grid_vdw_energy:          -27.995058
##########                      Grid_es_energy:           -1.274854
##########           Internal_energy_repulsive:           26.687096

@<TRIPOS>MOLECULE
ZINC001039666729
 45 47 1 0 0
SMALL
USER_CHARGES


@<TRIPOS>ATOM
      1 C1          1.1346    2.8587   46.4922 C.3     1  ZINC001039666729   -0.1100
      2 C2         -0.3455    2.6888   46.7200 C.ar    1  ZINC001039666729    0.2200
      3 C3         -1.2446    2.9213   45.6913 C.ar    1  ZINC001039666729   -0.3000
      4 C4         -2.5974    2.7535   45.9430 C.ar    1  ZINC001039666729    0.1900
      5 N5         -2.9875    2.3789   47.1501 N.ar    1  ZINC001039666729   -0.5800
      6 C6         -2.1017    2.1646   48.1120 C.ar    1  ZINC001039666729    0.6000
      7 N7         -2.5447    1.7730   49.3634 N.pl3   1  ZINC001039666729   -0.5900
      8 C8         -1.6967    1.0405   50.3529 C.3     1  ZINC001039666729    0.1200
      9 C9         -0.8049    2.0661   51.0562 C.3     1  ZINC001039666729    0.0900
     10 N10        -1.6750    3.0164   51.7928 N.am    1  ZINC001039666729   -0.7400
     11 C11        -1.9171    4.1921   51.1325 C.2     1  ZINC001039666729    0.5200
     12 O12        -1.4397    4.3977   50.0367 O.2     1  ZINC001039666729   -0.5200
     13 C13        -2.7905    5.2241   51.7984 C.3     1  ZINC001039666729   -0.1500
     14 C14        -4.0239    5.4848   50.9313 C.3     1  ZINC001039666729    0.1100
     15 N15        -4.7226    4.1922   50.7102 N.am    1  ZINC001039666729   -0.6100
     16 C16        -5.6593    3.7176   51.5550 C.2     1  ZINC001039666729    0.6100
     17 O17        -5.9640    4.3543   52.5446 O.2     1  ZINC001039666729   -0.5200
     18 C18        -6.3161    2.4227   51.2782 C.2     1  ZINC001039666729   -0.0400
     19 N19        -6.5211    1.4298   52.1302 N.2     1  ZINC001039666729   -0.2500
     20 N20        -7.1215    0.4767   51.5100 N.pl3   1  ZINC001039666729   -0.2300
     21 N21        -7.3292    0.7836   50.2795 N.2     1  ZINC001039666729   -0.2800
     22 C22        -6.8611    1.9876   50.0536 C.2     1  ZINC001039666729    0.0400
     23 C23        -4.3064    3.4649   49.4830 C.3     1  ZINC001039666729    0.1100
     24 C24        -3.9224    2.0413   49.8779 C.3     1  ZINC001039666729    0.1300
     25 N25        -0.8017    2.3107   47.9028 N.ar    1  ZINC001039666729   -0.5700
     26 H26         1.5600    1.9156   46.1492 H       1  ZINC001039666729    0.0800
     27 H27         1.3001    3.6277   45.7376 H       1  ZINC001039666729    0.0800
     28 H28         1.6140    3.1557   47.4250 H       1  ZINC001039666729    0.0800
     29 H29        -0.8988    3.2269   44.7149 H       1  ZINC001039666729    0.1400
     30 H30        -3.3240    2.9269   45.1632 H       1  ZINC001039666729    0.1600
     31 H31        -2.3315    0.5404   51.0843 H       1  ZINC001039666729    0.0800
     32 H32        -1.0782    0.3062   49.8366 H       1  ZINC001039666729    0.0900
     33 H33        -0.1418    1.5574   51.7559 H       1  ZINC001039666729    0.0800
     34 H34        -0.2140    2.6069   50.3169 H       1  ZINC001039666729    0.1000
     35 H35        -2.0418    2.8212   52.6694 H       1  ZINC001039666729    0.4100
     36 H36        -3.1045    4.8581   52.7759 H       1  ZINC001039666729    0.0800
     37 H37        -2.2296    6.1507   51.9204 H       1  ZINC001039666729    0.1100
     38 H38        -4.6907    6.1802   51.4409 H       1  ZINC001039666729    0.1100
     39 H39        -3.7170    5.9049   49.9733 H       1  ZINC001039666729    0.0900
     40 H40        -7.3828   -0.3640   51.9174 H       1  ZINC001039666729    0.4700
     41 H41        -6.8822    2.5305   49.1202 H       1  ZINC001039666729    0.2100
     42 H42        -5.1324    3.4417   48.7721 H       1  ZINC001039666729    0.0800
     43 H43        -3.4483    3.9644   49.0334 H       1  ZINC001039666729    0.1200
     44 H44        -4.6219    1.3337   49.4329 H       1  ZINC001039666729    0.0700
     45 H45        -3.9374    1.9429   50.9633 H       1  ZINC001039666729    0.0900
@<TRIPOS>BOND
     1     1     2    1
     2     1    26    1
     3     1    27    1
     4     1    28    1
     5     2    25   ar
     6     2     3   ar
     7     3     4   ar
     8     3    29    1
     9     4     5   ar
    10     4    30    1
    11     5     6   ar
    12     6     7    1
    13     6    25   ar
    14     7    24    1
    15     7     8    1
    16     8     9    1
    17     8    31    1
    18     8    32    1
    19     9    10    1
    20     9    33    1
    21     9    34    1
    22    10    11   am
    23    10    35    1
    24    11    12    2
    25    11    13    1
    26    13    14    1
    27    13    36    1
    28    13    37    1
    29    14    15    1
    30    14    38    1
    31    14    39    1
    32    15    16   am
    33    15    23    1
    34    16    17    2
    35    16    18    1
    36    18    22    1
    37    18    19    2
    38    19    20    1
    39    20    21    1
    40    20    40    1
    41    21    22    2
    42    22    41    1
    43    23    24    1
    44    23    42    1
    45    23    43    1
    46    24    44    1
    47    24    45    1
@<TRIPOS>SUBSTRUCTURE
     1 ZINC001039666729        1 TEMP              0 ****  ****    0 ROOT


##########                                Name:    ZINC000774689801
##########                DOCK_Rotatable_Bonds:                   4
##########                         Heavy_Atoms:                  24
##########                    Molecular_Weight:             347.395
##########                DOCK_Rotatable_Bonds:                   4
##########                       Formal_Charge:         -0.00999961
##########                     HBond_Acceptors:                   8
##########                        HBond_Donors:                   1
##########                         Heavy_Atoms:                  24
##########                          Grid_Score:          -29.269077
##########                     Grid_vdw_energy:          -28.030092
##########                      Grid_es_energy:           -1.238985
##########           Internal_energy_repulsive:            5.393681

@<TRIPOS>MOLECULE
ZINC000774689801
 41 44 1 0 0
SMALL
USER_CHARGES


@<TRIPOS>ATOM
      1 C1        -10.8204   -0.7529   54.7874 C.3     1  ZINC000774689801   -0.1200
      2 C2         -9.5713   -0.0522   55.2565 C.2     1  ZINC000774689801    0.0600
      3 C3         -9.2770    0.0925   56.5585 C.2     1  ZINC000774689801   -0.2800
      4 C4        -10.1064   -0.3976   57.6613 C.2     1  ZINC000774689801    0.5500
      5 O5        -10.8351    0.3693   58.2615 O.2     1  ZINC000774689801   -0.4900
      6 O6        -10.0624   -1.6996   58.0115 O.3     1  ZINC000774689801   -0.3400
      7 C7        -11.0294   -2.1504   58.9964 C.3     1  ZINC000774689801    0.0900
      8 C8        -12.3760   -2.3968   58.3132 C.3     1  ZINC000774689801   -0.1300
      9 H9        -12.6926   -1.5096   57.7647 H       1  ZINC000774689801    0.1200
     10 C10       -12.2872   -3.6156   57.3657 C.3     1  ZINC000774689801   -0.1300
     11 C11       -13.6804   -4.2578   57.5470 C.3     1  ZINC000774689801    0.1000
     12 N12       -14.1333   -3.8411   58.8794 N.am    1  ZINC000774689801   -0.7400
     13 C13       -13.4225   -2.7908   59.3322 C.2     1  ZINC000774689801    0.5200
     14 O14       -13.5946   -2.2446   60.4012 O.2     1  ZINC000774689801   -0.5100
     15 S15        -7.7582    0.9508   56.7537 S.3     1  ZINC000774689801    0.3000
     16 C16        -7.5594    1.0941   55.0113 C.2     1  ZINC000774689801    0.1000
     17 C17        -8.6413    0.4842   54.3680 C.2     1  ZINC000774689801   -0.2500
     18 C18        -8.6406    0.5089   52.8928 C.2     1  ZINC000774689801    0.5700
     19 O19        -9.5495   -0.0007   52.2619 O.2     1  ZINC000774689801   -0.5000
     20 N20        -7.6088    1.1101   52.2553 N.am    1  ZINC000774689801   -0.5500
     21 C21        -7.3798    1.2591   50.8078 C.3     1  ZINC000774689801    0.0900
     22 C22        -6.3273    2.3781   50.6674 C.3     1  ZINC000774689801   -0.1300
     23 C23        -5.5835    2.2832   52.0169 C.3     1  ZINC000774689801   -0.0800
     24 C24        -6.6030    1.6781   52.9677 C.2     1  ZINC000774689801    0.4200
     25 N25        -6.5877    1.6591   54.2740 N.2     1  ZINC000774689801   -0.5100
     26 H26       -10.6157   -1.8164   54.6638 H       1  ZINC000774689801    0.0800
     27 H27       -11.6113   -0.6186   55.5254 H       1  ZINC000774689801    0.1000
     28 H28       -11.1376   -0.3307   53.8339 H       1  ZINC000774689801    0.0800
     29 H29       -10.6788   -3.0760   59.4528 H       1  ZINC000774689801    0.0900
     30 H30       -11.1468   -1.3874   59.7661 H       1  ZINC000774689801    0.0800
     31 H31       -12.1355   -3.2976   56.3342 H       1  ZINC000774689801    0.1000
     32 H32       -11.4987   -4.2987   57.6817 H       1  ZINC000774689801    0.0900
     33 H33       -14.3669   -3.8914   56.7836 H       1  ZINC000774689801    0.0800
     34 H34       -13.6045   -5.3440   57.4971 H       1  ZINC000774689801    0.0800
     35 H35       -14.8535   -4.2665   59.3705 H       1  ZINC000774689801    0.4100
     36 H36        -6.9980    0.3280   50.3890 H       1  ZINC000774689801    0.1000
     37 H37        -8.3045    1.5468   50.3077 H       1  ZINC000774689801    0.1000
     38 H38        -5.6526    2.1766   49.8353 H       1  ZINC000774689801    0.1100
     39 H39        -6.8054    3.3510   50.5531 H       1  ZINC000774689801    0.0900
     40 H40        -4.7132    1.6330   51.9275 H       1  ZINC000774689801    0.1200
     41 H41        -5.2857    3.2746   52.3584 H       1  ZINC000774689801    0.1200
@<TRIPOS>BOND
     1     1     2    1
     2     1    26    1
     3     1    27    1
     4     1    28    1
     5     2    17    1
     6     2     3    2
     7     3     4    1
     8     3    15    1
     9     4     5    2
    10     4     6    1
    11     6     7    1
    12     7     8    1
    13     7    29    1
    14     7    30    1
    15     8     9    1
    16     8    13    1
    17     8    10    1
    18    10    11    1
    19    10    31    1
    20    10    32    1
    21    11    12    1
    22    11    33    1
    23    11    34    1
    24    12    13   am
    25    12    35    1
    26    13    14    2
    27    15    16    1
    28    16    25    1
    29    16    17    2
    30    17    18    1
    31    18    19    2
    32    18    20   am
    33    20    24    1
    34    20    21    1
    35    21    22    1
    36    21    36    1
    37    21    37    1
    38    22    23    1
    39    22    38    1
    40    22    39    1
    41    23    24    1
    42    23    40    1
    43    23    41    1
    44    24    25    2
@<TRIPOS>SUBSTRUCTURE
     1 ZINC000774689801        1 TEMP              0 ****  ****    0 ROOT


##########                                Name:    ZINC000579444893
##########                DOCK_Rotatable_Bonds:                   8
##########                         Heavy_Atoms:                  26
##########                    Molecular_Weight:             365.494
##########                DOCK_Rotatable_Bonds:                   8
##########                       Formal_Charge:         -0.00999993
##########                     HBond_Acceptors:                   7
##########                        HBond_Donors:                   1
##########                         Heavy_Atoms:                  26
##########                          Grid_Score:          -29.267824
##########                     Grid_vdw_energy:          -28.550898
##########                      Grid_es_energy:           -0.716926
##########           Internal_energy_repulsive:           25.626348

@<TRIPOS>MOLECULE
ZINC000579444893
 58 60 1 0 0
SMALL
USER_CHARGES


@<TRIPOS>ATOM
      1 C1         -1.2701    0.7049   45.2261 C.3     1  ZINC000579444893   -0.1600
      2 C2         -1.0646    2.0553   45.9155 C.3     1  ZINC000579444893    0.1700
      3 H3         -1.7286    2.7957   45.4696 H       1  ZINC000579444893    0.0900
      4 N4         -1.3663    1.9256   47.3432 N.am    1  ZINC000579444893   -0.7400
      5 C5         -2.6311    2.0819   47.7816 C.2     1  ZINC000579444893    0.7100
      6 O6         -3.5215    2.3320   46.9922 O.2     1  ZINC000579444893   -0.5900
      7 N7         -2.9089    1.9610   49.0948 N.am    1  ZINC000579444893   -0.6300
      8 C8         -1.8364    1.6579   50.0456 C.3     1  ZINC000579444893    0.0800
      9 C9         -4.2835    2.1327   49.5716 C.3     1  ZINC000579444893    0.1100
     10 C10        -4.6218    3.6239   49.6264 C.3     1  ZINC000579444893    0.0600
     11 H11        -4.4871    4.0710   48.6416 H       1  ZINC000579444893    0.1000
     12 C12        -3.7121    4.3311   50.6530 C.3     1  ZINC000579444893   -0.1600
     13 C13        -4.6675    5.3563   51.3187 C.3     1  ZINC000579444893    0.0800
     14 H14        -4.7565    6.2578   50.7126 H       1  ZINC000579444893    0.1000
     15 F15        -4.2440    5.6672   52.6154 F       1  ZINC000579444893   -0.2000
     16 C16        -6.0020    4.5701   51.3434 C.3     1  ZINC000579444893    0.0200
     17 N17        -6.0149    3.8061   50.0738 N.3     1  ZINC000579444893   -0.5000
     18 C18        -6.6862    2.5108   50.2457 C.3     1  ZINC000579444893    0.1000
     19 C19        -8.0940    2.7355   50.7340 C.2     1  ZINC000579444893    0.0800
     20 C20        -8.9292    3.7220   50.3340 C.2     1  ZINC000579444893   -0.2500
     21 C21       -10.1348    3.5729   51.0275 C.2     1  ZINC000579444893    0.0400
     22 N22       -10.0270    2.5341   51.8157 N.2     1  ZINC000579444893   -0.2900
     23 N23        -8.7496    1.9854   51.6444 N.pl3   1  ZINC000579444893   -0.3700
     24 C24        -8.2162    0.8103   52.3379 C.3     1  ZINC000579444893    0.0900
     25 C25         0.3883    2.5018   45.7397 C.3     1  ZINC000579444893   -0.1000
     26 C26         0.6951    2.7727   44.2459 C.3     1  ZINC000579444893   -0.1200
     27 C27         1.8986    3.7454   44.3152 C.3     1  ZINC000579444893   -0.1300
     28 C28         1.5820    4.6537   45.5212 C.3     1  ZINC000579444893   -0.1300
     29 C29         0.6217    3.8630   46.4269 C.3     1  ZINC000579444893   -0.1200
     30 H30        -2.2781    0.3432   45.4287 H       1  ZINC000579444893    0.0600
     31 H31        -1.1353    0.8217   44.1508 H       1  ZINC000579444893    0.0700
     32 H32        -0.5433   -0.0122   45.6076 H       1  ZINC000579444893    0.0500
     33 H33        -0.6557    1.7273   47.9730 H       1  ZINC000579444893    0.4000
     34 H34        -1.3386    2.5823   50.3385 H       1  ZINC000579444893    0.0600
     35 H35        -2.2582    1.1770   50.9281 H       1  ZINC000579444893    0.0800
     36 H36        -1.1142    0.9890   49.5775 H       1  ZINC000579444893    0.0700
     37 H37        -4.9697    1.6293   48.8907 H       1  ZINC000579444893    0.0900
     38 H38        -4.3789    1.7017   50.5682 H       1  ZINC000579444893    0.0900
     39 H39        -3.3361    3.6204   51.3888 H       1  ZINC000579444893    0.1100
     40 H40        -2.8889    4.8404   50.1519 H       1  ZINC000579444893    0.0800
     41 H41        -6.0271    3.8918   52.1963 H       1  ZINC000579444893    0.0600
     42 H42        -6.8469    5.2578   51.3794 H       1  ZINC000579444893    0.0900
     43 H43        -6.7122    1.9855   49.2909 H       1  ZINC000579444893    0.1100
     44 H44        -6.1398    1.9124   50.9748 H       1  ZINC000579444893    0.0500
     45 H45        -8.7047    4.4892   49.6078 H       1  ZINC000579444893    0.1500
     46 H46       -11.0040    4.2063   50.9298 H       1  ZINC000579444893    0.1800
     47 H47        -8.3954   -0.0798   51.7349 H       1  ZINC000579444893    0.0800
     48 H48        -7.1444    0.9348   52.4922 H       1  ZINC000579444893    0.0800
     49 H49        -8.7120    0.7016   53.3025 H       1  ZINC000579444893    0.0900
     50 H50         1.0685    1.7503   46.1408 H       1  ZINC000579444893    0.0800
     51 H51         0.9725    1.8508   43.7350 H       1  ZINC000579444893    0.0700
     52 H52        -0.1561    3.2458   43.7564 H       1  ZINC000579444893    0.0700
     53 H53         2.8243    3.1954   44.4845 H       1  ZINC000579444893    0.0700
     54 H54         1.9658    4.3349   43.4009 H       1  ZINC000579444893    0.0700
     55 H55         2.4984    4.8880   46.0630 H       1  ZINC000579444893    0.0600
     56 H56         1.1034    5.5722   45.1815 H       1  ZINC000579444893    0.0600
     57 H57        -0.3229    4.3976   46.5267 H       1  ZINC000579444893    0.0600
     58 H58         1.0720    3.7135   47.4082 H       1  ZINC000579444893    0.0600
@<TRIPOS>BOND
     1     1     2    1
     2     1    30    1
     3     1    31    1
     4     1    32    1
     5     2     3    1
     6     2     4    1
     7     2    25    1
     8     4     5   am
     9     4    33    1
    10     5     6    2
    11     5     7   am
    12     7     8    1
    13     7     9    1
    14     8    34    1
    15     8    35    1
    16     8    36    1
    17     9    10    1
    18     9    37    1
    19     9    38    1
    20    10    11    1
    21    10    17    1
    22    10    12    1
    23    12    13    1
    24    12    39    1
    25    12    40    1
    26    13    14    1
    27    13    15    1
    28    13    16    1
    29    16    17    1
    30    16    41    1
    31    16    42    1
    32    17    18    1
    33    18    19    1
    34    18    43    1
    35    18    44    1
    36    19    23    1
    37    19    20    2
    38    20    21    1
    39    20    45    1
    40    21    22    2
    41    21    46    1
    42    22    23    1
    43    23    24    1
    44    24    47    1
    45    24    48    1
    46    24    49    1
    47    25    29    1
    48    25    26    1
    49    25    50    1
    50    26    27    1
    51    26    51    1
    52    26    52    1
    53    27    28    1
    54    27    53    1
    55    27    54    1
    56    28    29    1
    57    28    55    1
    58    28    56    1
    59    29    57    1
    60    29    58    1
@<TRIPOS>SUBSTRUCTURE
     1 ZINC000579444893        1 TEMP              0 ****  ****    0 ROOT


##########                                Name:    ZINC000458730620
##########                DOCK_Rotatable_Bonds:                   9
##########                         Heavy_Atoms:                  25
##########                    Molecular_Weight:              375.44
##########                DOCK_Rotatable_Bonds:                   9
##########                       Formal_Charge:        -1.86265e-07
##########                     HBond_Acceptors:                   9
##########                        HBond_Donors:                   3
##########                         Heavy_Atoms:                  25
##########                          Grid_Score:          -29.260452
##########                     Grid_vdw_energy:          -27.993547
##########                      Grid_es_energy:           -1.266905
##########           Internal_energy_repulsive:           70.105522

@<TRIPOS>MOLECULE
ZINC000458730620
 48 49 1 0 0
SMALL
USER_CHARGES


@<TRIPOS>ATOM
      1 C1         -5.9402    2.3077   57.7381 C.3     1  ZINC000458730620   -0.1600
      2 C2         -6.5143    2.6935   56.3733 C.3     1  ZINC000458730620    0.2000
      3 C3         -6.6652    4.2140   56.2949 C.3     1  ZINC000458730620   -0.1600
      4 N4         -5.6085    2.2375   55.3159 N.am    1  ZINC000458730620   -0.7400
      5 C5         -5.9801    2.3309   54.0237 C.2     1  ZINC000458730620    0.7100
      6 O6         -7.0676    2.7922   53.7355 O.2     1  ZINC000458730620   -0.5800
      7 N7         -5.1462    1.9130   53.0509 N.am    1  ZINC000458730620   -0.7500
      8 C8         -5.5493    2.0161   51.6463 C.3     1  ZINC000458730620    0.1300
      9 C9         -4.6244    1.1531   50.7855 C.3     1  ZINC000458730620    0.1000
     10 N10        -3.2327    1.3864   51.1791 N.am    1  ZINC000458730620   -1.1100
     11 S11        -2.2967    2.4497   50.3211 S.o2    1  ZINC000458730620    2.7000
     12 O12        -3.0171    3.6738   50.2780 O.2     1  ZINC000458730620   -0.9400
     13 O13        -0.9810    2.3404   50.8466 O.2     1  ZINC000458730620   -0.9400
     14 C14        -2.2213    1.8579   48.6633 C.ar    1  ZINC000458730620   -0.7300
     15 C15        -2.8216    2.5751   47.6459 C.ar    1  ZINC000458730620    0.0400
     16 C16        -2.7627    2.1123   46.3448 C.ar    1  ZINC000458730620   -0.1800
     17 C17        -2.1022    0.9295   46.0593 C.ar    1  ZINC000458730620    0.1900
     18 F18        -2.0445    0.4776   44.7874 F       1  ZINC000458730620   -0.1200
     19 C19        -1.5004    0.2102   47.0777 C.ar    1  ZINC000458730620   -0.2100
     20 C20        -1.5555    0.6772   48.3794 C.ar    1  ZINC000458730620    0.2200
     21 F21        -0.9687   -0.0237   49.3741 F       1  ZINC000458730620   -0.1100
     22 C22        -7.8832    2.0349   56.1912 C.3     1  ZINC000458730620   -0.1100
     23 C23        -7.9669    0.6158   56.7776 C.3     1  ZINC000458730620   -0.1400
     24 C24        -9.3784    0.9846   57.2637 C.3     1  ZINC000458730620   -0.1400
     25 C25        -8.9131    2.4503   57.2551 C.3     1  ZINC000458730620   -0.1400
     26 H26        -6.5822    2.7004   58.5264 H       1  ZINC000458730620    0.0600
     27 H27        -5.8903    1.2217   57.8174 H       1  ZINC000458730620    0.0500
     28 H28        -4.9391    2.7259   57.8425 H       1  ZINC000458730620    0.0800
     29 H29        -5.6900    4.6831   56.4247 H       1  ZINC000458730620    0.0800
     30 H30        -7.0742    4.4889   55.3227 H       1  ZINC000458730620    0.0500
     31 H31        -7.3392    4.5532   57.0817 H       1  ZINC000458730620    0.0600
     32 H32        -4.7415    1.8685   55.5458 H       1  ZINC000458730620    0.3900
     33 H33        -4.2791    1.5439   53.2808 H       1  ZINC000458730620    0.4000
     34 H34        -6.5765    1.6685   51.5365 H       1  ZINC000458730620    0.0800
     35 H35        -5.4808    3.0551   51.3239 H       1  ZINC000458730620    0.0800
     36 H36        -4.8711    0.1012   50.9292 H       1  ZINC000458730620    0.0900
     37 H37        -4.7543    1.4167   49.7359 H       1  ZINC000458730620    0.0700
     38 H38        -2.8595    0.9183   51.9422 H       1  ZINC000458730620    0.4300
     39 H39        -3.3374    3.4977   47.8677 H       1  ZINC000458730620    0.1700
     40 H40        -3.2326    2.6734   45.5505 H       1  ZINC000458730620    0.1600
     41 H41        -0.9850   -0.7126   46.8560 H       1  ZINC000458730620    0.1600
     42 H42        -8.2563    2.1094   55.1698 H       1  ZINC000458730620    0.1100
     43 H43        -7.9567   -0.1701   56.0223 H       1  ZINC000458730620    0.0700
     44 H44        -7.2596    0.4354   57.5872 H       1  ZINC000458730620    0.0800
     45 H45       -10.1608    0.7707   56.5355 H       1  ZINC000458730620    0.0800
     46 H46        -9.6103    0.6060   58.2592 H       1  ZINC000458730620    0.0700
     47 H47        -8.4644    2.7715   58.1951 H       1  ZINC000458730620    0.0800
     48 H48        -9.6666    3.1455   56.8853 H       1  ZINC000458730620    0.0700
@<TRIPOS>BOND
     1     1     2    1
     2     1    26    1
     3     1    27    1
     4     1    28    1
     5     2     3    1
     6     2     4    1
     7     2    22    1
     8     3    29    1
     9     3    30    1
    10     3    31    1
    11     4     5   am
    12     4    32    1
    13     5     6    2
    14     5     7   am
    15     7     8    1
    16     7    33    1
    17     8     9    1
    18     8    34    1
    19     8    35    1
    20     9    10    1
    21     9    36    1
    22     9    37    1
    23    10    11   am
    24    10    38    1
    25    11    12    2
    26    11    13    2
    27    11    14    1
    28    14    20   ar
    29    14    15   ar
    30    15    16   ar
    31    15    39    1
    32    16    17   ar
    33    16    40    1
    34    17    18    1
    35    17    19   ar
    36    19    20   ar
    37    19    41    1
    38    20    21    1
    39    22    25    1
    40    22    23    1
    41    22    42    1
    42    23    24    1
    43    23    43    1
    44    23    44    1
    45    24    25    1
    46    24    45    1
    47    24    46    1
    48    25    47    1
    49    25    48    1
@<TRIPOS>SUBSTRUCTURE
     1 ZINC000458730620        1 TEMP              0 ****  ****    0 ROOT


##########                                Name:    ZINC001098311495
##########                DOCK_Rotatable_Bonds:                   8
##########                         Heavy_Atoms:                  24
##########                    Molecular_Weight:             328.454
##########                DOCK_Rotatable_Bonds:                   8
##########                       Formal_Charge:          0.00999987
##########                     HBond_Acceptors:                   4
##########                        HBond_Donors:                   1
##########                         Heavy_Atoms:                  24
##########                          Grid_Score:          -29.235970
##########                     Grid_vdw_energy:          -28.406111
##########                      Grid_es_energy:           -0.829858
##########           Internal_energy_repulsive:           24.168816

@<TRIPOS>MOLECULE
ZINC001098311495
 52 54 1 0 0
SMALL
USER_CHARGES


@<TRIPOS>ATOM
      1 C1         -6.4168    2.2164   57.7937 C.3     1  ZINC001098311495   -0.1500
      2 C2         -7.3525    1.4010   56.8989 C.3     1  ZINC001098311495    0.0500
      3 O3         -7.0070    1.6142   55.5288 O.3     1  ZINC001098311495   -0.2800
      4 C4         -7.8157    1.0532   54.5953 C.ar    1  ZINC001098311495    0.1900
      5 C5         -8.7848    0.1363   54.9737 C.ar    1  ZINC001098311495   -0.2200
      6 C6         -9.6030   -0.4389   54.0214 C.ar    1  ZINC001098311495   -0.0500
      7 C7         -9.4677   -0.1010   52.6850 C.ar    1  ZINC001098311495   -0.1700
      8 C8         -8.5139    0.8130   52.2919 C.ar    1  ZINC001098311495   -0.0500
      9 C9         -7.6795    1.4021   53.2445 C.ar    1  ZINC001098311495   -0.1800
     10 C10        -6.6564    2.3813   52.8307 C.2     1  ZINC001098311495    0.5600
     11 O11        -6.6574    3.4999   53.3074 O.2     1  ZINC001098311495   -0.5200
     12 N12        -5.7208    2.0360   51.9241 N.am    1  ZINC001098311495   -0.7200
     13 C13        -4.7038    3.0077   51.5145 C.3     1  ZINC001098311495    0.1600
     14 H14        -4.5842    3.7797   52.2747 H       1  ZINC001098311495    0.1000
     15 C15        -5.0698    3.6361   50.1475 C.3     1  ZINC001098311495   -0.1200
     16 C16        -3.8835    3.2203   49.2262 C.3     1  ZINC001098311495    0.0500
     17 H17        -4.0892    3.2408   48.1560 H       1  ZINC001098311495    0.1100
     18 C18        -2.6664    4.0740   49.6941 C.3     1  ZINC001098311495   -0.1500
     19 C19        -2.2884    3.4478   51.0587 C.3     1  ZINC001098311495   -0.1500
     20 C20        -3.3454    2.2962   51.2365 C.3     1  ZINC001098311495    0.0400
     21 H21        -3.0658    1.5057   51.9330 H       1  ZINC001098311495    0.1200
     22 N22        -3.5296    1.8740   49.8021 N.3     1  ZINC001098311495   -0.4900
     23 C23        -2.2704    1.3733   49.2350 C.3     1  ZINC001098311495    0.0600
     24 C24        -2.4324    1.1741   47.7500 C.2     1  ZINC001098311495   -0.1600
     25 C25        -1.3748    1.0682   46.9841 C.2     1  ZINC001098311495   -0.1200
     26 C26        -1.5368    0.8689   45.4992 C.3     1  ZINC001098311495   -0.1200
     27 C27         0.0037    1.1456   47.5881 C.3     1  ZINC001098311495   -0.1200
     28 H28        -5.3871    1.9011   57.6254 H       1  ZINC001098311495    0.0700
     29 H29        -6.5164    3.2751   57.5544 H       1  ZINC001098311495    0.0700
     30 H30        -6.6803    2.0538   58.8388 H       1  ZINC001098311495    0.0800
     31 H31        -8.3822    1.7163   57.0673 H       1  ZINC001098311495    0.0600
     32 H32        -7.2529    0.3423   57.1383 H       1  ZINC001098311495    0.0600
     33 H33        -8.8966   -0.1319   56.0138 H       1  ZINC001098311495    0.1300
     34 H34       -10.3530   -1.1560   54.3204 H       1  ZINC001098311495    0.1300
     35 H35       -10.1127   -0.5557   51.9476 H       1  ZINC001098311495    0.1300
     36 H36        -8.4117    1.0732   51.2487 H       1  ZINC001098311495    0.1300
     37 H37        -5.7207    1.1440   51.5429 H       1  ZINC001098311495    0.4000
     38 H38        -5.1309    4.7215   50.2281 H       1  ZINC001098311495    0.0800
     39 H39        -6.0077    3.2246   49.7748 H       1  ZINC001098311495    0.0800
     40 H40        -1.8405    3.9838   48.9885 H       1  ZINC001098311495    0.0700
     41 H41        -2.9547    5.1179   49.8175 H       1  ZINC001098311495    0.0800
     42 H42        -1.2750    3.0472   51.0295 H       1  ZINC001098311495    0.0700
     43 H43        -2.3892    4.1813   51.8587 H       1  ZINC001098311495    0.0800
     44 H44        -2.0135    0.4231   49.7031 H       1  ZINC001098311495    0.0500
     45 H45        -1.4757    2.0961   49.4201 H       1  ZINC001098311495    0.0800
     46 H46        -3.4203    1.1185   47.3172 H       1  ZINC001098311495    0.1100
     47 H47        -1.5786   -0.1976   45.2781 H       1  ZINC001098311495    0.0700
     48 H48        -0.6896    1.3150   44.9782 H       1  ZINC001098311495    0.0600
     49 H49        -2.4592    1.3453   45.1672 H       1  ZINC001098311495    0.0600
     50 H50         0.3026    2.1899   47.6787 H       1  ZINC001098311495    0.0700
     51 H51        -0.0056    0.6834   48.5752 H       1  ZINC001098311495    0.0600
     52 H52         0.7112    0.6194   46.9472 H       1  ZINC001098311495    0.0600
@<TRIPOS>BOND
     1     1     2    1
     2     1    28    1
     3     1    29    1
     4     1    30    1
     5     2     3    1
     6     2    31    1
     7     2    32    1
     8     3     4    1
     9     4     9   ar
    10     4     5   ar
    11     5     6   ar
    12     5    33    1
    13     6     7   ar
    14     6    34    1
    15     7     8   ar
    16     7    35    1
    17     8     9   ar
    18     8    36    1
    19     9    10    1
    20    10    11    2
    21    10    12   am
    22    12    13    1
    23    12    37    1
    24    13    14    1
    25    13    20    1
    26    13    15    1
    27    15    16    1
    28    15    38    1
    29    15    39    1
    30    16    17    1
    31    16    22    1
    32    16    18    1
    33    18    19    1
    34    18    40    1
    35    18    41    1
    36    19    20    1
    37    19    42    1
    38    19    43    1
    39    20    21    1
    40    20    22    1
    41    22    23    1
    42    23    24    1
    43    23    44    1
    44    23    45    1
    45    24    25    2
    46    24    46    1
    47    25    26    1
    48    25    27    1
    49    26    47    1
    50    26    48    1
    51    26    49    1
    52    27    50    1
    53    27    51    1
    54    27    52    1
@<TRIPOS>SUBSTRUCTURE
     1 ZINC001098311495        1 TEMP              0 ****  ****    0 ROOT


##########                                Name:    ZINC000826324849
##########                DOCK_Rotatable_Bonds:                   4
##########                         Heavy_Atoms:                  27
##########                    Molecular_Weight:             395.374
##########                DOCK_Rotatable_Bonds:                   4
##########                       Formal_Charge:           0.0400001
##########                     HBond_Acceptors:                  13
##########                        HBond_Donors:                   1
##########                         Heavy_Atoms:                  27
##########                          Grid_Score:          -29.226236
##########                     Grid_vdw_energy:          -27.852577
##########                      Grid_es_energy:           -1.373659
##########           Internal_energy_repulsive:           84.128700

@<TRIPOS>MOLECULE
ZINC000826324849
 41 44 1 0 0
SMALL
USER_CHARGES


@<TRIPOS>ATOM
      1 C1         -8.8248    0.4908   52.1966 C.3     1  ZINC000826324849   -0.0600
      2 C2         -8.8645    0.9807   53.6212 C.2     1  ZINC000826324849    0.2000
      3 N3         -7.9167    0.8517   54.5182 N.2     1  ZINC000826324849   -0.4600
      4 C4         -8.3916    1.4348   55.6332 C.2     1  ZINC000826324849    0.1600
      5 C5         -7.6749    1.5506   56.9538 C.3     1  ZINC000826324849    0.2200
      6 H6         -6.6122    1.3524   56.8133 H       1  ZINC000826324849    0.1300
      7 C7         -7.8661    2.9610   57.5231 C.3     1  ZINC000826324849    0.0600
      8 O8         -7.3446    3.0063   58.8534 O.3     1  ZINC000826324849   -0.3600
      9 C9         -8.0106    2.1377   59.7731 C.3     1  ZINC000826324849    0.0400
     10 C10        -7.8267    0.6852   59.3190 C.3     1  ZINC000826324849    0.0800
     11 N11        -8.2373    0.5833   57.9094 N.am    1  ZINC000826324849   -1.0100
     12 S12        -9.3019   -0.5844   57.4139 S.o2    1  ZINC000826324849    2.7100
     13 O13       -10.4461   -0.4641   58.2479 O.2     1  ZINC000826324849   -0.9300
     14 O14        -9.3607   -0.4985   55.9967 O.2     1  ZINC000826324849   -0.9300
     15 C15        -8.5752   -2.1454   57.7880 C.ar    1  ZINC000826324849   -0.5800
     16 C16        -7.2207   -2.2353   58.0362 C.ar    1  ZINC000826324849   -0.0400
     17 C17        -6.6475   -3.4597   58.3302 C.ar    1  ZINC000826324849   -0.0800
     18 C18        -7.4267   -4.6007   58.3769 C.ar    1  ZINC000826324849   -0.1100
     19 C19        -8.7852   -4.5230   58.1300 C.ar    1  ZINC000826324849    0.1300
     20 F20        -9.5468   -5.6380   58.1761 F       1  ZINC000826324849   -0.1100
     21 C21        -9.3682   -3.2895   57.8392 C.ar    1  ZINC000826324849    0.0500
     22 C22       -10.8258   -3.1984   57.5736 C.2     1  ZINC000826324849    0.1800
     23 N23       -11.4127   -3.2009   56.3933 N.2     1  ZINC000826324849   -0.2600
     24 N24       -12.6836   -3.1068   56.5847 N.pl3   1  ZINC000826324849   -0.2200
     25 N25       -12.9205   -3.0447   57.8485 N.2     1  ZINC000826324849   -0.0200
     26 N26       -11.8018   -3.1034   58.4877 N.2     1  ZINC000826324849   -0.2600
     27 N27        -9.5819    1.8805   55.3626 N.2     1  ZINC000826324849   -0.3800
     28 O28        -9.8702    1.6349   54.2102 O.3     1  ZINC000826324849    0.0900
     29 H29        -9.7579    0.7507   51.6969 H       1  ZINC000826324849    0.1000
     30 H30        -7.9904    0.9589   51.6745 H       1  ZINC000826324849    0.1100
     31 H31        -8.6974   -0.5917   52.1882 H       1  ZINC000826324849    0.1100
     32 H32        -7.3357    3.6804   56.8994 H       1  ZINC000826324849    0.1200
     33 H33        -8.9281    3.2059   57.5399 H       1  ZINC000826324849    0.0600
     34 H34        -7.5840    2.2649   60.7681 H       1  ZINC000826324849    0.1200
     35 H35        -9.0732    2.3796   59.7980 H       1  ZINC000826324849    0.0600
     36 H36        -6.7794    0.3996   59.4173 H       1  ZINC000826324849    0.0900
     37 H37        -8.4457    0.0283   59.9300 H       1  ZINC000826324849    0.1100
     38 H38        -6.6064   -1.3477   58.0005 H       1  ZINC000826324849    0.1400
     39 H39        -5.5869   -3.5245   58.5236 H       1  ZINC000826324849    0.1500
     40 H40        -6.9739   -5.5540   58.6062 H       1  ZINC000826324849    0.1500
     41 H41       -13.3562   -3.0855   55.8861 H       1  ZINC000826324849    0.4800
@<TRIPOS>BOND
     1     1     2    1
     2     1    29    1
     3     1    30    1
     4     1    31    1
     5     2    28    1
     6     2     3    2
     7     3     4    1
     8     4     5    1
     9     4    27    2
    10     5     6    1
    11     5    11    1
    12     5     7    1
    13     7     8    1
    14     7    32    1
    15     7    33    1
    16     8     9    1
    17     9    10    1
    18     9    34    1
    19     9    35    1
    20    10    11    1
    21    10    36    1
    22    10    37    1
    23    11    12   am
    24    12    13    2
    25    12    14    2
    26    12    15    1
    27    15    21   ar
    28    15    16   ar
    29    16    17   ar
    30    16    38    1
    31    17    18   ar
    32    17    39    1
    33    18    19   ar
    34    18    40    1
    35    19    20    1
    36    19    21   ar
    37    21    22    1
    38    22    26    1
    39    22    23    2
    40    23    24    1
    41    24    25    1
    42    24    41    1
    43    25    26    2
    44    27    28    1
@<TRIPOS>SUBSTRUCTURE
     1 ZINC000826324849        1 TEMP              0 ****  ****    0 ROOT


##########                                Name:    ZINC001053792610
##########                DOCK_Rotatable_Bonds:                   5
##########                         Heavy_Atoms:                  25
##########                    Molecular_Weight:             347.374
##########                DOCK_Rotatable_Bonds:                   5
##########                       Formal_Charge:          -0.0400001
##########                     HBond_Acceptors:                   9
##########                        HBond_Donors:                   2
##########                         Heavy_Atoms:                  25
##########                          Grid_Score:          -29.203976
##########                     Grid_vdw_energy:          -27.278082
##########                      Grid_es_energy:           -1.925893
##########           Internal_energy_repulsive:            6.651161

@<TRIPOS>MOLECULE
ZINC001053792610
 46 49 1 0 0
SMALL
USER_CHARGES


@<TRIPOS>ATOM
      1 C1         -9.6694    4.3948   48.7759 C.3     1  ZINC001053792610   -0.1000
      2 C2         -8.4310    4.2817   49.6273 C.ar    1  ZINC001053792610    0.0800
      3 C3         -7.7635    3.0736   49.7202 C.ar    1  ZINC001053792610    0.0600
      4 N4         -6.6776    2.9744   50.4669 N.ar    1  ZINC001053792610   -0.4200
      5 C5         -6.2295    4.0290   51.1246 C.ar    1  ZINC001053792610    0.0800
      6 C6         -4.9910    3.9160   51.9756 C.3     1  ZINC001053792610    0.0700
      7 N7         -3.8087    4.2372   51.1649 N.3     1  ZINC001053792610   -0.4500
      8 C8         -3.1967    3.0121   50.6136 C.3     1  ZINC001053792610   -0.0100
      9 C9         -1.8341    3.6119   50.9550 C.3     1  ZINC001053792610    0.0800
     10 C10        -2.6110    4.3914   52.0140 C.3     1  ZINC001053792610   -0.0100
     11 C11        -0.7995    2.6162   51.5025 C.3     1  ZINC001053792610   -0.1500
     12 C12         0.2316    2.5511   50.3407 C.3     1  ZINC001053792610    0.1100
     13 H13         1.2291    2.3183   50.7137 H       1  ZINC001053792610    0.1200
     14 N14        -0.1844    1.5867   49.3194 N.am    1  ZINC001053792610   -0.7100
     15 C15         0.7068    1.1377   48.4135 C.2     1  ZINC001053792610    0.5000
     16 O16         1.8537    1.5310   48.4448 O.2     1  ZINC001053792610   -0.5100
     17 C17         0.2784    0.1471   47.3619 C.3     1  ZINC001053792610    0.0800
     18 H18         1.1118   -0.4973   47.0822 H       1  ZINC001053792610    0.1300
     19 C19        -0.9114   -0.6941   47.8634 C.3     1  ZINC001053792610    0.0500
     20 O20        -1.9820   -0.3857   46.9244 O.3     1  ZINC001053792610   -0.3200
     21 C21        -1.5373    0.4848   46.0111 C.2     1  ZINC001053792610    0.6500
     22 O22        -2.2304    0.9110   45.1087 O.2     1  ZINC001053792610   -0.5100
     23 N23        -0.2544    0.8445   46.1816 N.am    1  ZINC001053792610   -0.7100
     24 C24         0.1623    4.0025   49.8005 C.3     1  ZINC001053792610    0.0400
     25 O25        -1.2178    4.3880   49.9324 O.3     1  ZINC001053792610   -0.3300
     26 C26        -6.8973    5.2375   51.0317 C.ar    1  ZINC001053792610    0.0600
     27 N27        -7.9799    5.3380   50.2809 N.ar    1  ZINC001053792610   -0.4400
     28 H28        -9.3881    4.6754   47.7609 H       1  ZINC001053792610    0.0800
     29 H29       -10.1865    3.4355   48.7575 H       1  ZINC001053792610    0.0800
     30 H30       -10.3292    5.1553   49.1934 H       1  ZINC001053792610    0.0800
     31 H31        -8.1299    2.2115   49.1828 H       1  ZINC001053792610    0.1700
     32 H32        -5.0591    4.6133   52.8107 H       1  ZINC001053792610    0.1000
     33 H33        -4.9041    2.8990   52.3577 H       1  ZINC001053792610    0.0600
     34 H34        -3.4317    2.1139   51.1845 H       1  ZINC001053792610    0.0800
     35 H35        -3.3611    2.8878   49.5433 H       1  ZINC001053792610    0.0900
     36 H36        -2.2835    5.4257   52.1200 H       1  ZINC001053792610    0.1000
     37 H37        -2.6854    3.8717   52.9692 H       1  ZINC001053792610    0.0800
     38 H38        -0.3367    2.9967   52.4130 H       1  ZINC001053792610    0.1000
     39 H39        -1.2525    1.6401   51.6762 H       1  ZINC001053792610    0.1000
     40 H40        -1.1013    1.2712   49.2952 H       1  ZINC001053792610    0.4000
     41 H41        -0.6689   -1.7563   47.8310 H       1  ZINC001053792610    0.1200
     42 H42        -1.1915   -0.3957   48.8737 H       1  ZINC001053792610    0.1100
     43 H43         0.2371    1.4640   45.6197 H       1  ZINC001053792610    0.4400
     44 H44         0.7969    4.6585   50.3963 H       1  ZINC001053792610    0.0800
     45 H45         0.4646    4.0312   48.7536 H       1  ZINC001053792610    0.0900
     46 H46        -6.5311    6.0996   51.5693 H       1  ZINC001053792610    0.1600
@<TRIPOS>BOND
     1     1     2    1
     2     1    28    1
     3     1    29    1
     4     1    30    1
     5     2    27   ar
     6     2     3   ar
     7     3     4   ar
     8     3    31    1
     9     4     5   ar
    10     5     6    1
    11     5    26   ar
    12     6     7    1
    13     6    32    1
    14     6    33    1
    15     7    10    1
    16     7     8    1
    17     8     9    1
    18     8    34    1
    19     8    35    1
    20     9    25    1
    21     9    10    1
    22     9    11    1
    23    10    36    1
    24    10    37    1
    25    11    12    1
    26    11    38    1
    27    11    39    1
    28    12    13    1
    29    12    14    1
    30    12    24    1
    31    14    15   am
    32    14    40    1
    33    15    16    2
    34    15    17    1
    35    17    18    1
    36    17    23    1
    37    17    19    1
    38    19    20    1
    39    19    41    1
    40    19    42    1
    41    20    21    1
    42    21    22    2
    43    21    23   am
    44    23    43    1
    45    24    25    1
    46    24    44    1
    47    24    45    1
    48    26    27   ar
    49    26    46    1
@<TRIPOS>SUBSTRUCTURE
     1 ZINC001053792610        1 TEMP              0 ****  ****    0 ROOT


##########                                Name:    ZINC000842947763
##########                DOCK_Rotatable_Bonds:                   7
##########                         Heavy_Atoms:                  24
##########                    Molecular_Weight:             365.373
##########                DOCK_Rotatable_Bonds:                   7
##########                       Formal_Charge:          0.00999997
##########                     HBond_Acceptors:                   9
##########                        HBond_Donors:                   0
##########                         Heavy_Atoms:                  24
##########                          Grid_Score:          -29.173214
##########                     Grid_vdw_energy:          -28.521358
##########                      Grid_es_energy:           -0.651856
##########           Internal_energy_repulsive:           31.127127

@<TRIPOS>MOLECULE
ZINC000842947763
 42 43 1 0 0
SMALL
USER_CHARGES


@<TRIPOS>ATOM
      1 C1        -10.2339    1.5771   65.3024 C.3     1  ZINC000842947763   -0.1600
      2 C2         -8.8078    1.6463   64.7528 C.3     1  ZINC000842947763   -0.1000
      3 H3         -8.3102    2.5335   65.1442 H       1  ZINC000842947763    0.1000
      4 C4         -8.8529    1.7192   63.2251 C.3     1  ZINC000842947763    0.0800
      5 O5         -9.6071    0.5910   62.7088 O.3     1  ZINC000842947763   -0.3500
      6 C6         -9.1342   -0.0030   61.5954 C.2     1  ZINC000842947763    0.5200
      7 O7         -7.9625    0.1141   61.2953 O.2     1  ZINC000842947763   -0.5100
      8 C8        -10.0381   -0.7942   60.7416 C.ar    1  ZINC000842947763   -0.1600
      9 C9        -11.4115   -0.8203   61.0040 C.ar    1  ZINC000842947763   -0.0200
     10 C10       -12.2487   -1.5595   60.2042 C.ar    1  ZINC000842947763   -0.1700
     11 C11       -11.7349   -2.2893   59.1253 C.ar    1  ZINC000842947763    0.2000
     12 C12       -10.3684   -2.2569   58.8727 C.ar    1  ZINC000842947763   -0.1500
     13 C13        -9.5296   -1.5196   59.6601 C.ar    1  ZINC000842947763   -0.0100
     14 C14       -10.0847   -3.1212   57.6639 C.3     1  ZINC000842947763   -0.0800
     15 C15       -11.4624   -3.6604   57.2460 C.3     1  ZINC000842947763    0.1100
     16 N16       -12.4071   -3.0890   58.2090 N.am    1  ZINC000842947763   -0.9400
     17 S17       -14.0411   -3.3579   58.2063 S.o2    1  ZINC000842947763    2.6100
     18 C18       -14.5983   -2.7436   56.5930 C.3     1  ZINC000842947763   -0.6700
     19 O19       -14.1637   -4.7721   58.2709 O.2     1  ZINC000842947763   -0.9300
     20 O20       -14.5340   -2.5313   59.2518 O.2     1  ZINC000842947763   -0.9400
     21 C21        -8.0349    0.3973   65.1811 C.3     1  ZINC000842947763   -0.1600
     22 C22        -6.9951    0.7781   66.2369 C.3     1  ZINC000842947763    0.4600
     23 F23        -6.3270   -0.3722   66.6697 F       1  ZINC000842947763   -0.1800
     24 F24        -6.0729    1.6721   65.6821 F       1  ZINC000842947763   -0.1800
     25 F25        -7.6345    1.3829   67.3243 F       1  ZINC000842947763   -0.1800
     26 H26       -10.2095    1.6663   66.3885 H       1  ZINC000842947763    0.0700
     27 H27       -10.8246    2.3920   64.8839 H       1  ZINC000842947763    0.0700
     28 H28       -10.6838    0.6233   65.0263 H       1  ZINC000842947763    0.0600
     29 H29        -9.3342    2.6483   62.9198 H       1  ZINC000842947763    0.0800
     30 H30        -7.8375    1.6889   62.8299 H       1  ZINC000842947763    0.0800
     31 H31       -11.8136   -0.2600   61.8352 H       1  ZINC000842947763    0.1500
     32 H32       -13.3090   -1.5781   60.4088 H       1  ZINC000842947763    0.1500
     33 H33        -8.4701   -1.5038   59.4514 H       1  ZINC000842947763    0.1400
     34 H34        -9.6505   -2.5237   56.8622 H       1  ZINC000842947763    0.1000
     35 H35        -9.4194   -3.9424   57.9308 H       1  ZINC000842947763    0.1000
     36 H36       -11.7067   -3.3315   56.2360 H       1  ZINC000842947763    0.1000
     37 H37       -11.4759   -4.7489   57.3036 H       1  ZINC000842947763    0.0900
     38 H38       -14.0936   -3.2958   55.8001 H       1  ZINC000842947763    0.1300
     39 H39       -15.6757   -2.8827   56.5036 H       1  ZINC000842947763    0.1400
     40 H40       -14.3602   -1.6836   56.5058 H       1  ZINC000842947763    0.1300
     41 H41        -8.7275   -0.3327   65.6001 H       1  ZINC000842947763    0.1200
     42 H42        -7.5324   -0.0338   64.3152 H       1  ZINC000842947763    0.1100
@<TRIPOS>BOND
     1     1     2    1
     2     1    26    1
     3     1    27    1
     4     1    28    1
     5     2     3    1
     6     2     4    1
     7     2    21    1
     8     4     5    1
     9     4    29    1
    10     4    30    1
    11     5     6    1
    12     6     7    2
    13     6     8    1
    14     8    13   ar
    15     8     9   ar
    16     9    10   ar
    17     9    31    1
    18    10    11   ar
    19    10    32    1
    20    11    16    1
    21    11    12   ar
    22    12    13   ar
    23    12    14    1
    24    13    33    1
    25    14    15    1
    26    14    34    1
    27    14    35    1
    28    15    16    1
    29    15    36    1
    30    15    37    1
    31    16    17   am
    32    17    18    1
    33    17    19    2
    34    17    20    2
    35    18    38    1
    36    18    39    1
    37    18    40    1
    38    21    22    1
    39    21    41    1
    40    21    42    1
    41    22    23    1
    42    22    24    1
    43    22    25    1
@<TRIPOS>SUBSTRUCTURE
     1 ZINC000842947763        1 TEMP              0 ****  ****    0 ROOT


##########                                Name:    ZINC000787750060
##########                DOCK_Rotatable_Bonds:                   6
##########                         Heavy_Atoms:                  24
##########                    Molecular_Weight:             347.438
##########                DOCK_Rotatable_Bonds:                   6
##########                       Formal_Charge:           0.0200003
##########                     HBond_Acceptors:                   7
##########                        HBond_Donors:                   2
##########                         Heavy_Atoms:                  24
##########                          Grid_Score:          -29.173212
##########                     Grid_vdw_energy:          -28.060389
##########                      Grid_es_energy:           -1.112823
##########           Internal_energy_repulsive:            4.555679

@<TRIPOS>MOLECULE
ZINC000787750060
 45 47 1 0 0
SMALL
USER_CHARGES


@<TRIPOS>ATOM
      1 C1         -7.6952   -0.7336   58.8240 C.3     1  ZINC000787750060   -0.1200
      2 C2         -7.8767   -0.1624   57.4412 C.ar    1  ZINC000787750060   -0.0400
      3 C3         -7.1912    0.9838   57.0745 C.ar    1  ZINC000787750060   -0.1300
      4 C4         -7.3496    1.5150   55.8126 C.ar    1  ZINC000787750060   -0.0700
      5 C5         -8.2046    0.8953   54.8984 C.ar    1  ZINC000787750060   -0.1700
      6 C6         -8.3784    1.4583   53.5458 C.2     1  ZINC000787750060    0.5600
      7 O7         -9.3978    2.0577   53.2630 O.2     1  ZINC000787750060   -0.5200
      8 N8         -7.4072    1.3080   52.6235 N.am    1  ZINC000787750060   -0.7300
      9 C9         -7.5805    1.8654   51.2798 C.3     1  ZINC000787750060    0.2100
     10 C10        -6.2443    1.9278   50.5856 C.2     1  ZINC000787750060   -0.2800
     11 C11        -5.9198    2.7463   49.5845 C.2     1  ZINC000787750060    0.0900
     12 N12        -4.6821    2.6102   49.1425 N.2     1  ZINC000787750060   -0.5200
     13 C13        -3.9472    1.7142   49.7247 C.2     1  ZINC000787750060    0.2300
     14 N14        -2.6301    1.4325   49.3971 N.3     1  ZINC000787750060   -0.4500
     15 C15        -1.7032    2.0892   50.3302 C.3     1  ZINC000787750060    0.0200
     16 C16        -0.2661    1.7043   49.9691 C.3     1  ZINC000787750060    0.0600
     17 O17        -0.0093    2.0628   48.6087 O.3     1  ZINC000787750060   -0.3800
     18 C18        -0.8934    1.4406   47.6726 C.3     1  ZINC000787750060    0.0600
     19 C19        -2.3370    1.8230   48.0105 C.3     1  ZINC000787750060    0.0300
     20 S20        -4.8367    0.9372   50.9607 S.3     1  ZINC000787750060    0.1700
     21 C21        -8.8963   -0.2649   55.2734 C.ar    1  ZINC000787750060    0.1700
     22 O22        -9.7295   -0.8755   54.3940 O.3     1  ZINC000787750060   -0.4700
     23 C23        -8.7213   -0.7881   56.5454 C.ar    1  ZINC000787750060   -0.1200
     24 C24        -9.4620   -2.0351   56.9547 C.3     1  ZINC000787750060   -0.1200
     25 H25        -6.8680   -1.4434   58.8182 H       1  ZINC000787750060    0.0800
     26 H26        -7.4773    0.0725   59.5244 H       1  ZINC000787750060    0.0700
     27 H27        -8.6091   -1.2433   59.1294 H       1  ZINC000787750060    0.0800
     28 H28        -6.5298    1.4638   57.7806 H       1  ZINC000787750060    0.1300
     29 H29        -6.8135    2.4093   55.5311 H       1  ZINC000787750060    0.1300
     30 H30        -6.5935    0.8308   52.8493 H       1  ZINC000787750060    0.4000
     31 H31        -8.2578    1.2312   50.7079 H       1  ZINC000787750060    0.0900
     32 H32        -7.9985    2.8693   51.3540 H       1  ZINC000787750060    0.0800
     33 H33        -6.6126    3.4628   49.1683 H       1  ZINC000787750060    0.1800
     34 H34        -1.8193    3.1706   50.2580 H       1  ZINC000787750060    0.0600
     35 H35        -1.9216    1.7663   51.3480 H       1  ZINC000787750060    0.1000
     36 H36         0.4277    2.2337   50.6222 H       1  ZINC000787750060    0.1100
     37 H37        -0.1351    0.6293   50.0931 H       1  ZINC000787750060    0.0700
     38 H38        -0.6536    1.7794   46.6647 H       1  ZINC000787750060    0.1100
     39 H39        -0.7809    0.3579   47.7297 H       1  ZINC000787750060    0.0600
     40 H40        -3.0181    1.3055   47.3349 H       1  ZINC000787750060    0.1000
     41 H41        -2.4633    2.9001   47.9011 H       1  ZINC000787750060    0.0700
     42 H42        -9.7887   -1.8339   54.5089 H       1  ZINC000787750060    0.4000
     43 H43        -8.8616   -2.9112   56.7094 H       1  ZINC000787750060    0.0700
     44 H44        -9.6482   -2.0112   58.0284 H       1  ZINC000787750060    0.0700
     45 H45       -10.4117   -2.0848   56.4222 H       1  ZINC000787750060    0.0800
@<TRIPOS>BOND
     1     1     2    1
     2     1    25    1
     3     1    26    1
     4     1    27    1
     5     2    23   ar
     6     2     3   ar
     7     3     4   ar
     8     3    28    1
     9     4     5   ar
    10     4    29    1
    11     5     6    1
    12     5    21   ar
    13     6     7    2
    14     6     8   am
    15     8     9    1
    16     8    30    1
    17     9    10    1
    18     9    31    1
    19     9    32    1
    20    10    20    1
    21    10    11    2
    22    11    12    1
    23    11    33    1
    24    12    13    2
    25    13    14    1
    26    13    20    1
    27    14    19    1
    28    14    15    1
    29    15    16    1
    30    15    34    1
    31    15    35    1
    32    16    17    1
    33    16    36    1
    34    16    37    1
    35    17    18    1
    36    18    19    1
    37    18    38    1
    38    18    39    1
    39    19    40    1
    40    19    41    1
    41    21    22    1
    42    21    23   ar
    43    22    42    1
    44    23    24    1
    45    24    43    1
    46    24    44    1
    47    24    45    1
@<TRIPOS>SUBSTRUCTURE
     1 ZINC000787750060        1 TEMP              0 ****  ****    0 ROOT


##########                                Name:    ZINC000979274057
##########                DOCK_Rotatable_Bonds:                   6
##########                         Heavy_Atoms:                  24
##########                    Molecular_Weight:              330.39
##########                DOCK_Rotatable_Bonds:                   6
##########                       Formal_Charge:          0.00999946
##########                     HBond_Acceptors:                   8
##########                        HBond_Donors:                   1
##########                         Heavy_Atoms:                  24
##########                          Grid_Score:          -29.144436
##########                     Grid_vdw_energy:          -29.898216
##########                      Grid_es_energy:            0.753780
##########           Internal_energy_repulsive:            9.810550

@<TRIPOS>MOLECULE
ZINC000979274057
 46 48 1 0 0
SMALL
USER_CHARGES


@<TRIPOS>ATOM
      1 C1        -12.7876   -2.4502   59.7045 C.3     1  ZINC000979274057   -0.1400
      2 C2        -12.0815   -2.6424   58.3609 C.3     1  ZINC000979274057    0.1000
      3 H3        -12.0273   -1.6870   57.8390 H       1  ZINC000979274057    0.0600
      4 N4        -12.8347   -3.6041   57.5450 N.3     1  ZINC000979274057   -0.6700
      5 C5        -13.4427   -2.9448   56.3815 C.3     1  ZINC000979274057    0.1300
      6 C6        -14.5778   -2.0652   56.8387 C.ar    1  ZINC000979274057    0.3200
      7 N7        -15.7204   -2.6221   57.1874 N.ar    1  ZINC000979274057   -0.5200
      8 C8        -16.7391   -1.8818   57.5939 C.ar    1  ZINC000979274057    0.1500
      9 C9        -16.5918   -0.5048   57.6502 C.ar    1  ZINC000979274057   -0.2300
     10 C10       -15.3754    0.0438   57.2756 C.ar    1  ZINC000979274057    0.1500
     11 N11       -14.3997   -0.7601   56.8846 N.ar    1  ZINC000979274057   -0.5000
     12 C12       -10.6668   -3.1741   58.5997 C.3     1  ZINC000979274057    0.0800
     13 H13       -10.5080   -3.3193   59.6682 H       1  ZINC000979274057    0.0700
     14 C14        -9.6438   -2.1668   58.0622 C.3     1  ZINC000979274057    0.0800
     15 N15        -8.3080   -2.7800   58.1322 N.am    1  ZINC000979274057   -0.6000
     16 C16        -7.2754   -2.1300   58.7047 C.2     1  ZINC000979274057    0.6100
     17 O17        -6.1788   -2.6538   58.7530 O.2     1  ZINC000979274057   -0.5400
     18 C18        -7.4748   -0.7851   59.2718 C.2     1  ZINC000979274057   -0.0600
     19 C19        -7.1750    0.3989   58.6643 C.2     1  ZINC000979274057    0.0400
     20 N20        -7.5155    1.3822   59.5303 N.pl3   1  ZINC000979274057   -0.4600
     21 C21        -7.3712    2.8222   59.3025 C.3     1  ZINC000979274057    0.0700
     22 C22        -8.0154    0.7942   60.6482 C.2     1  ZINC000979274057    0.1900
     23 N23        -7.9958   -0.4980   60.4922 N.2     1  ZINC000979274057   -0.4600
     24 C24        -8.1328   -4.1239   57.5591 C.3     1  ZINC000979274057    0.0500
     25 C25        -9.2296   -5.0358   58.1211 C.3     1  ZINC000979274057    0.0500
     26 O26       -10.5040   -4.4206   57.9189 O.3     1  ZINC000979274057   -0.3600
     27 H27       -13.7954   -2.0714   59.5344 H       1  ZINC000979274057    0.0600
     28 H28       -12.8419   -3.4056   60.2264 H       1  ZINC000979274057    0.0700
     29 H29       -12.2287   -1.7367   60.3100 H       1  ZINC000979274057    0.0600
     30 H30       -12.2478   -4.3734   57.2589 H       1  ZINC000979274057    0.3500
     31 H31       -12.6928   -2.3365   55.8756 H       1  ZINC000979274057    0.1000
     32 H32       -13.8226   -3.6998   55.6933 H       1  ZINC000979274057    0.0600
     33 H33       -17.6728   -2.3443   57.8779 H       1  ZINC000979274057    0.1700
     34 H34       -17.4054    0.1255   57.9775 H       1  ZINC000979274057    0.1500
     35 H35       -15.2245    1.1128   57.3062 H       1  ZINC000979274057    0.1700
     36 H36        -9.8806   -1.9198   57.0273 H       1  ZINC000979274057    0.0700
     37 H37        -9.6649   -1.2623   58.6701 H       1  ZINC000979274057    0.1000
     38 H38        -6.7475    0.5274   57.6808 H       1  ZINC000979274057    0.1900
     39 H39        -8.2791    3.2098   58.8403 H       1  ZINC000979274057    0.0800
     40 H40        -7.2047    3.3258   60.2547 H       1  ZINC000979274057    0.0900
     41 H41        -6.5224    3.0025   58.6429 H       1  ZINC000979274057    0.0900
     42 H42        -8.3749    1.3149   61.5234 H       1  ZINC000979274057    0.2100
     43 H43        -8.2175   -4.0741   56.4735 H       1  ZINC000979274057    0.0700
     44 H44        -7.1534   -4.5154   57.8338 H       1  ZINC000979274057    0.1500
     45 H45        -9.2033   -5.9965   57.6067 H       1  ZINC000979274057    0.1100
     46 H46        -9.0648   -5.1885   59.1877 H       1  ZINC000979274057    0.0500
@<TRIPOS>BOND
     1     1     2    1
     2     1    27    1
     3     1    28    1
     4     1    29    1
     5     2     3    1
     6     2     4    1
     7     2    12    1
     8     4     5    1
     9     4    30    1
    10     5     6    1
    11     5    31    1
    12     5    32    1
    13     6    11   ar
    14     6     7   ar
    15     7     8   ar
    16     8     9   ar
    17     8    33    1
    18     9    10   ar
    19     9    34    1
    20    10    11   ar
    21    10    35    1
    22    12    13    1
    23    12    26    1
    24    12    14    1
    25    14    15    1
    26    14    36    1
    27    14    37    1
    28    15    16   am
    29    15    24    1
    30    16    17    2
    31    16    18    1
    32    18    23    1
    33    18    19    2
    34    19    20    1
    35    19    38    1
    36    20    21    1
    37    20    22    1
    38    21    39    1
    39    21    40    1
    40    21    41    1
    41    22    23    2
    42    22    42    1
    43    24    25    1
    44    24    43    1
    45    24    44    1
    46    25    26    1
    47    25    45    1
    48    25    46    1
@<TRIPOS>SUBSTRUCTURE
     1 ZINC000979274057        1 TEMP              0 ****  ****    0 ROOT


##########                                Name:    ZINC000995593866
##########                DOCK_Rotatable_Bonds:                   7
##########                         Heavy_Atoms:                  24
##########                    Molecular_Weight:             342.389
##########                DOCK_Rotatable_Bonds:                   7
##########                       Formal_Charge:                0.03
##########                     HBond_Acceptors:                   8
##########                        HBond_Donors:                   1
##########                         Heavy_Atoms:                  24
##########                          Grid_Score:          -29.127228
##########                     Grid_vdw_energy:          -26.810760
##########                      Grid_es_energy:           -2.316467
##########           Internal_energy_repulsive:           10.024794

@<TRIPOS>MOLECULE
ZINC000995593866
 48 50 1 0 0
SMALL
USER_CHARGES


@<TRIPOS>ATOM
      1 C1         -5.2847    4.9819   50.5887 C.3     1  ZINC000995593866   -0.1400
      2 C2         -5.6639    3.5168   50.8138 C.3     1  ZINC000995593866   -0.0800
      3 C3         -7.1016    3.4132   51.3267 C.3     1  ZINC000995593866   -0.1400
      4 C4         -5.4989    2.7127   49.5061 C.3     1  ZINC000995593866    0.1200
      5 N5         -4.1451    2.1188   49.6009 N.am    1  ZINC000995593866   -0.6300
      6 C6         -3.2331    1.9788   48.6184 C.2     1  ZINC000995593866    0.5400
      7 O7         -3.4867    2.3631   47.4963 O.2     1  ZINC000995593866   -0.5300
      8 C8         -1.8983    1.3448   48.9140 C.3     1  ZINC000995593866   -0.1300
      9 C9         -0.8657    2.4381   49.1960 C.3     1  ZINC000995593866   -0.1000
     10 C10        -0.5230    2.5918   50.6873 C.3     1  ZINC000995593866   -0.1300
     11 C11         0.9382    2.7887   50.2504 C.3     1  ZINC000995593866   -0.1400
     12 C12         0.5879    1.9804   48.9900 C.3     1  ZINC000995593866   -0.1400
     13 C13        -4.0211    1.7133   51.0203 C.3     1  ZINC000995593866    0.1100
     14 C14        -4.6895    2.8579   51.8122 C.3     1  ZINC000995593866    0.0800
     15 H15        -3.9407    3.5779   52.1423 H       1  ZINC000995593866    0.0700
     16 N16        -5.4230    2.3202   52.9658 N.3     1  ZINC000995593866   -0.6800
     17 C17        -4.7576    2.6775   54.2258 C.3     1  ZINC000995593866    0.1500
     18 C18        -5.6556    2.3286   55.3846 C.2     1  ZINC000995593866    0.1900
     19 N19        -5.5886    2.8178   56.5993 N.2     1  ZINC000995593866   -0.4300
     20 C20        -6.5800    2.2213   57.2851 C.2     1  ZINC000995593866    0.0900
     21 C21        -6.9230    2.4473   58.7350 C.3     1  ZINC000995593866    0.3800
     22 F22        -7.8521    3.4881   58.8376 F       1  ZINC000995593866   -0.1800
     23 F23        -7.4716    1.2778   59.2722 F       1  ZINC000995593866   -0.1700
     24 N24        -7.1879    1.4146   56.4676 N.2     1  ZINC000995593866   -0.3400
     25 O25        -6.6760    1.4657   55.3691 O.3     1  ZINC000995593866    0.1000
     26 H26        -4.2728    5.0378   50.1874 H       1  ZINC000995593866    0.0600
     27 H27        -5.9813    5.4330   49.8822 H       1  ZINC000995593866    0.0600
     28 H28        -5.3299    5.5186   51.5364 H       1  ZINC000995593866    0.0600
     29 H29        -7.7799    3.8593   50.5993 H       1  ZINC000995593866    0.0700
     30 H30        -7.3615    2.3645   51.4704 H       1  ZINC000995593866    0.0700
     31 H31        -7.1877    3.9422   52.2759 H       1  ZINC000995593866    0.0600
     32 H32        -6.2542    1.9293   49.4439 H       1  ZINC000995593866    0.0800
     33 H33        -5.5641    3.3744   48.6424 H       1  ZINC000995593866    0.0900
     34 H34        -1.9890    0.6971   49.7860 H       1  ZINC000995593866    0.0900
     35 H35        -1.5778    0.7552   48.0551 H       1  ZINC000995593866    0.0900
     36 H36        -1.1011    3.3803   48.7013 H       1  ZINC000995593866    0.1000
     37 H37        -0.9640    3.4760   51.1476 H       1  ZINC000995593866    0.0700
     38 H38        -0.6865    1.6845   51.2687 H       1  ZINC000995593866    0.0800
     39 H39         1.1964    3.8276   50.0451 H       1  ZINC000995593866    0.0800
     40 H40         1.6589    2.2929   50.9007 H       1  ZINC000995593866    0.0700
     41 H41         0.7282    0.9058   49.1074 H       1  ZINC000995593866    0.0800
     42 H42         1.0438    2.3708   48.0802 H       1  ZINC000995593866    0.0700
     43 H43        -4.5456    0.7738   51.1945 H       1  ZINC000995593866    0.0900
     44 H44        -2.9714    1.6210   51.2989 H       1  ZINC000995593866    0.0800
     45 H45        -6.3822    2.6330   52.9621 H       1  ZINC000995593866    0.3600
     46 H46        -3.8220    2.1250   54.3119 H       1  ZINC000995593866    0.1200
     47 H47        -4.5501    3.7474   54.2363 H       1  ZINC000995593866    0.0800
     48 H48        -6.0198    2.7109   59.2853 H       1  ZINC000995593866    0.1500
@<TRIPOS>BOND
     1     1     2    1
     2     1    26    1
     3     1    27    1
     4     1    28    1
     5     2    14    1
     6     2     3    1
     7     2     4    1
     8     3    29    1
     9     3    30    1
    10     3    31    1
    11     4     5    1
    12     4    32    1
    13     4    33    1
    14     5     6   am
    15     5    13    1
    16     6     7    2
    17     6     8    1
    18     8     9    1
    19     8    34    1
    20     8    35    1
    21     9    12    1
    22     9    10    1
    23     9    36    1
    24    10    11    1
    25    10    37    1
    26    10    38    1
    27    11    12    1
    28    11    39    1
    29    11    40    1
    30    12    41    1
    31    12    42    1
    32    13    14    1
    33    13    43    1
    34    13    44    1
    35    14    15    1
    36    14    16    1
    37    16    17    1
    38    16    45    1
    39    17    18    1
    40    17    46    1
    41    17    47    1
    42    18    25    1
    43    18    19    2
    44    19    20    1
    45    20    21    1
    46    20    24    2
    47    21    22    1
    48    21    23    1
    49    21    48    1
    50    24    25    1
@<TRIPOS>SUBSTRUCTURE
     1 ZINC000995593866        1 TEMP              0 ****  ****    0 ROOT


##########                                Name:    ZINC001078110631
##########                DOCK_Rotatable_Bonds:                   7
##########                         Heavy_Atoms:                  25
##########                    Molecular_Weight:             353.369
##########                DOCK_Rotatable_Bonds:                   7
##########                       Formal_Charge:           0.0100006
##########                     HBond_Acceptors:                   8
##########                        HBond_Donors:                   2
##########                         Heavy_Atoms:                  25
##########                          Grid_Score:          -29.116339
##########                     Grid_vdw_energy:          -26.357750
##########                      Grid_es_energy:           -2.758588
##########           Internal_energy_repulsive:            8.651707

@<TRIPOS>MOLECULE
ZINC001078110631
 46 48 1 0 0
SMALL
USER_CHARGES


@<TRIPOS>ATOM
      1 O1         -7.0187   -0.3353   58.1176 O.2     1  ZINC001078110631   -0.5100
      2 C2         -7.2120    0.8623   58.2013 C.2     1  ZINC001078110631    0.5600
      3 N3         -7.9350    1.3582   59.2250 N.am    1  ZINC001078110631   -0.7200
      4 C4         -8.4929    0.4538   60.2335 C.3     1  ZINC001078110631    0.1500
      5 H5         -7.7365   -0.2588   60.5620 H       1  ZINC001078110631    0.1200
      6 C6         -9.7203   -0.2907   59.6655 C.3     1  ZINC001078110631    0.0300
      7 N7        -10.6646   -0.3823   60.8088 N.3     1  ZINC001078110631   -0.5000
      8 C8        -12.0390   -0.6038   60.3399 C.3     1  ZINC001078110631    0.0300
      9 C9        -12.3034   -2.1065   60.2268 C.3     1  ZINC001078110631    0.1300
     10 N10       -12.7668   -2.4203   58.8729 N.am    1  ZINC001078110631   -0.6200
     11 C11       -12.3307   -1.7122   57.6636 C.3     1  ZINC001078110631    0.1000
     12 C12       -12.7145   -2.6344   56.4851 C.3     1  ZINC001078110631   -0.1300
     13 C13       -13.8880   -3.4422   57.0861 C.3     1  ZINC001078110631   -0.1600
     14 C14       -13.6417   -3.3973   58.5781 C.2     1  ZINC001078110631    0.5200
     15 O15       -14.1632   -4.1311   59.3907 O.2     1  ZINC001078110631   -0.5200
     16 C16       -10.5400    0.9315   61.4911 C.3     1  ZINC001078110631    0.0000
     17 C17        -9.0298    1.2577   61.4356 C.3     1  ZINC001078110631    0.1000
     18 H18        -8.8787    2.3251   61.2749 H       1  ZINC001078110631    0.0700
     19 O19        -8.3876    0.8426   62.6430 O.3     1  ZINC001078110631   -0.5500
     20 C20        -6.6500    1.7732   57.1855 C.ar    1  ZINC001078110631   -0.1900
     21 C21        -5.8043    2.8165   57.5700 C.ar    1  ZINC001078110631   -0.0300
     22 C22        -5.2823    3.6642   56.6174 C.ar    1  ZINC001078110631   -0.1700
     23 C23        -5.5941    3.4846   55.2777 C.ar    1  ZINC001078110631    0.1600
     24 F24        -5.0786    4.3198   54.3494 F       1  ZINC001078110631   -0.1200
     25 C25        -6.4316    2.4524   54.8876 C.ar    1  ZINC001078110631   -0.2000
     26 C26        -6.9574    1.5922   55.8323 C.ar    1  ZINC001078110631    0.2000
     27 F27        -7.7741    0.5855   55.4519 F       1  ZINC001078110631   -0.1000
     28 H28        -8.0858    2.3139   59.2940 H       1  ZINC001078110631    0.4000
     29 H29       -10.1657    0.2779   58.8493 H       1  ZINC001078110631    0.0500
     30 H30        -9.4369   -1.2869   59.3258 H       1  ZINC001078110631    0.1000
     31 H31       -12.7402   -0.1639   61.0490 H       1  ZINC001078110631    0.0400
     32 H32       -12.1693   -0.1375   59.3634 H       1  ZINC001078110631    0.0800
     33 H33       -11.3832   -2.6538   60.4318 H       1  ZINC001078110631    0.0900
     34 H34       -13.0669   -2.3965   60.9486 H       1  ZINC001078110631    0.0800
     35 H35       -12.8482   -0.7567   57.5787 H       1  ZINC001078110631    0.0700
     36 H36       -11.2520   -1.5572   57.6855 H       1  ZINC001078110631    0.0800
     37 H37       -13.0425   -2.0516   55.6245 H       1  ZINC001078110631    0.0900
     38 H38       -11.8861   -3.2904   56.2174 H       1  ZINC001078110631    0.0800
     39 H39       -14.8404   -2.9732   56.8385 H       1  ZINC001078110631    0.1100
     40 H40       -13.8646   -4.4719   56.7294 H       1  ZINC001078110631    0.1000
     41 H41       -11.1137    1.6913   60.9606 H       1  ZINC001078110631    0.0600
     42 H42       -10.8738    0.8555   62.5260 H       1  ZINC001078110631    0.0900
     43 H43        -7.4347    1.0064   62.6579 H       1  ZINC001078110631    0.3800
     44 H44        -5.5602    2.9586   58.6123 H       1  ZINC001078110631    0.1500
     45 H45        -4.6287    4.4709   56.9147 H       1  ZINC001078110631    0.1500
     46 H46        -6.6709    2.3175   53.8431 H       1  ZINC001078110631    0.1600
@<TRIPOS>BOND
     1     1     2    2
     2     2     3   am
     3     2    20    1
     4     3     4    1
     5     3    28    1
     6     4     5    1
     7     4    17    1
     8     4     6    1
     9     6     7    1
    10     6    29    1
    11     6    30    1
    12     7     8    1
    13     7    16    1
    14     8     9    1
    15     8    31    1
    16     8    32    1
    17     9    10    1
    18     9    33    1
    19     9    34    1
    20    10    14   am
    21    10    11    1
    22    11    12    1
    23    11    35    1
    24    11    36    1
    25    12    13    1
    26    12    37    1
    27    12    38    1
    28    13    14    1
    29    13    39    1
    30    13    40    1
    31    14    15    2
    32    16    17    1
    33    16    41    1
    34    16    42    1
    35    17    18    1
    36    17    19    1
    37    19    43    1
    38    20    26   ar
    39    20    21   ar
    40    21    22   ar
    41    21    44    1
    42    22    23   ar
    43    22    45    1
    44    23    24    1
    45    23    25   ar
    46    25    26   ar
    47    25    46    1
    48    26    27    1
@<TRIPOS>SUBSTRUCTURE
     1 ZINC001078110631        1 TEMP              0 ****  ****    0 ROOT


##########                                Name:    ZINC000425987417
##########                DOCK_Rotatable_Bonds:                   9
##########                         Heavy_Atoms:                  25
##########                    Molecular_Weight:             357.419
##########                DOCK_Rotatable_Bonds:                   9
##########                       Formal_Charge:         -0.00999992
##########                     HBond_Acceptors:                   7
##########                        HBond_Donors:                   1
##########                         Heavy_Atoms:                  25
##########                          Grid_Score:          -29.083050
##########                     Grid_vdw_energy:          -28.829693
##########                      Grid_es_energy:           -0.253357
##########           Internal_energy_repulsive:           11.064473

@<TRIPOS>MOLECULE
ZINC000425987417
 51 52 1 0 0
SMALL
USER_CHARGES


@<TRIPOS>ATOM
      1 C1         -4.2066    4.9469   51.6255 C.3     1  ZINC000425987417   -0.1500
      2 C2         -5.2418    4.6870   50.5292 C.3     1  ZINC000425987417    0.0400
      3 N3         -5.2473    3.2578   50.1897 N.3     1  ZINC000425987417   -0.5300
      4 C4         -6.5482    2.8520   49.6412 C.3     1  ZINC000425987417    0.0400
      5 C5         -6.9604    1.5087   50.2466 C.3     1  ZINC000425987417    0.1400
      6 N6         -7.4469    1.7174   51.6126 N.am    1  ZINC000425987417   -0.7500
      7 C7         -8.0323    0.7044   52.2817 C.2     1  ZINC000425987417    0.7200
      8 O8         -8.1564   -0.3827   51.7515 O.2     1  ZINC000425987417   -0.5800
      9 N9         -8.4798    0.8965   53.5384 N.am    1  ZINC000425987417   -0.6200
     10 C10        -8.3444    2.2005   54.2083 C.3     1  ZINC000425987417    0.1300
     11 C11        -7.4160    2.0179   55.4080 C.3     1  ZINC000425987417   -0.1000
     12 C12        -7.8134    0.8097   56.2144 C.ar    1  ZINC000425987417   -0.0600
     13 C13        -7.3718    0.7393   57.5298 C.ar    1  ZINC000425987417   -0.1200
     14 C14        -7.6920   -0.3448   58.3206 C.ar    1  ZINC000425987417   -0.1100
     15 C15        -8.4575   -1.3721   57.8017 C.ar    1  ZINC000425987417   -0.1200
     16 C16        -8.9003   -1.3032   56.4964 C.ar    1  ZINC000425987417   -0.1100
     17 C17        -8.5836   -0.2103   55.7017 C.ar    1  ZINC000425987417   -0.0900
     18 C18        -9.1267   -0.1836   54.2910 C.3     1  ZINC000425987417    0.1800
     19 H19        -8.9216   -1.1376   53.8053 H       1  ZINC000425987417    0.0900
     20 C20       -10.6379    0.0524   54.3318 C.3     1  ZINC000425987417   -0.1600
     21 C21        -4.1588    2.9338   49.2579 C.3     1  ZINC000425987417    0.0500
     22 C22        -3.1865    1.9609   49.9278 C.3     1  ZINC000425987417   -0.1600
     23 C23        -2.0844    1.5786   48.9380 C.3     1  ZINC000425987417    0.4500
     24 F24        -1.1784    0.7129   49.5601 F       1  ZINC000425987417   -0.1800
     25 F25        -2.6530    0.9410   47.8302 F       1  ZINC000425987417   -0.1800
     26 F26        -1.4136    2.7324   48.5184 F       1  ZINC000425987417   -0.1900
     27 H27        -3.2130    4.6971   51.2535 H       1  ZINC000425987417    0.0500
     28 H28        -4.2345    5.9989   51.9095 H       1  ZINC000425987417    0.0600
     29 H29        -4.4350    4.3298   52.4944 H       1  ZINC000425987417    0.0700
     30 H30        -6.2295    4.9797   50.8853 H       1  ZINC000425987417    0.0800
     31 H31        -4.9874    5.2698   49.6438 H       1  ZINC000425987417    0.0400
     32 H32        -7.2967    3.6058   49.8858 H       1  ZINC000425987417    0.0500
     33 H33        -6.4714    2.7543   48.5583 H       1  ZINC000425987417    0.0800
     34 H34        -7.7521    1.0657   49.6426 H       1  ZINC000425987417    0.0800
     35 H35        -6.1001    0.8395   50.2656 H       1  ZINC000425987417    0.0700
     36 H36        -7.3477    2.5847   52.0355 H       1  ZINC000425987417    0.3900
     37 H37        -7.9162    2.9271   53.5178 H       1  ZINC000425987417    0.1000
     38 H38        -9.3217    2.5442   54.5472 H       1  ZINC000425987417    0.0700
     39 H39        -6.3930    1.8920   55.0538 H       1  ZINC000425987417    0.0800
     40 H40        -7.4690    2.9042   56.0404 H       1  ZINC000425987417    0.0900
     41 H41        -6.7722    1.5401   57.9367 H       1  ZINC000425987417    0.1200
     42 H42        -7.3451   -0.3908   59.3423 H       1  ZINC000425987417    0.1200
     43 H43        -8.7076   -2.2251   58.4149 H       1  ZINC000425987417    0.1200
     44 H44        -9.4978   -2.1059   56.0903 H       1  ZINC000425987417    0.1200
     45 H45       -10.8438    1.0055   54.8188 H       1  ZINC000425987417    0.0700
     46 H46       -11.0301    0.0718   53.3149 H       1  ZINC000425987417    0.0600
     47 H47       -11.1164   -0.7519   54.8905 H       1  ZINC000425987417    0.0700
     48 H48        -4.5733    2.4733   48.3610 H       1  ZINC000425987417    0.0500
     49 H49        -3.6295    3.8470   48.9859 H       1  ZINC000425987417    0.0900
     50 H50        -2.7410    2.4365   50.8017 H       1  ZINC000425987417    0.1200
     51 H51        -3.7244    1.0646   50.2366 H       1  ZINC000425987417    0.1100
@<TRIPOS>BOND
     1     1     2    1
     2     1    27    1
     3     1    28    1
     4     1    29    1
     5     2     3    1
     6     2    30    1
     7     2    31    1
     8     3     4    1
     9     3    21    1
    10     4     5    1
    11     4    32    1
    12     4    33    1
    13     5     6    1
    14     5    34    1
    15     5    35    1
    16     6     7   am
    17     6    36    1
    18     7     8    2
    19     7     9   am
    20     9    18    1
    21     9    10    1
    22    10    11    1
    23    10    37    1
    24    10    38    1
    25    11    12    1
    26    11    39    1
    27    11    40    1
    28    12    17   ar
    29    12    13   ar
    30    13    14   ar
    31    13    41    1
    32    14    15   ar
    33    14    42    1
    34    15    16   ar
    35    15    43    1
    36    16    17   ar
    37    16    44    1
    38    17    18    1
    39    18    19    1
    40    18    20    1
    41    20    45    1
    42    20    46    1
    43    20    47    1
    44    21    22    1
    45    21    48    1
    46    21    49    1
    47    22    23    1
    48    22    50    1
    49    22    51    1
    50    23    24    1
    51    23    25    1
    52    23    26    1
@<TRIPOS>SUBSTRUCTURE
     1 ZINC000425987417        1 TEMP              0 ****  ****    0 ROOT


##########                                Name:    ZINC001016082614
##########                DOCK_Rotatable_Bonds:                   6
##########                         Heavy_Atoms:                  25
##########                    Molecular_Weight:             348.402
##########                DOCK_Rotatable_Bonds:                   6
##########                       Formal_Charge:         -0.00999998
##########                     HBond_Acceptors:                   8
##########                        HBond_Donors:                   1
##########                         Heavy_Atoms:                  25
##########                          Grid_Score:          -29.060642
##########                     Grid_vdw_energy:          -27.513939
##########                      Grid_es_energy:           -1.546703
##########           Internal_energy_repulsive:           34.328217

@<TRIPOS>MOLECULE
ZINC001016082614
 49 51 1 0 0
SMALL
USER_CHARGES


@<TRIPOS>ATOM
      1 C1         -4.6275    2.5524   53.3662 C.3     1  ZINC001016082614   -0.1700
      2 C2         -4.4361    3.6021   52.2697 C.3     1  ZINC001016082614    0.1000
      3 N3         -3.8622    2.9673   51.0807 N.am    1  ZINC001016082614   -0.6100
      4 C4         -4.6615    2.3168   50.2119 C.2     1  ZINC001016082614    0.6100
      5 O5         -4.1848    1.7895   49.2243 O.2     1  ZINC001016082614   -0.5100
      6 C6         -6.1063    2.2445   50.4571 C.2     1  ZINC001016082614   -0.1100
      7 C7         -6.7884    1.1951   50.9975 C.2     1  ZINC001016082614    0.0600
      8 N8         -8.0796    1.5386   51.0464 N.2     1  ZINC001016082614   -0.4900
      9 C9         -8.2173    2.7441   50.5630 C.2     1  ZINC001016082614    0.2000
     10 O10        -7.0191    3.2091   50.1960 O.3     1  ZINC001016082614   -0.1900
     11 C11        -2.4196    3.0394   50.8359 C.3     1  ZINC001016082614    0.1600
     12 H12        -1.9423    3.4750   51.7137 H       1  ZINC001016082614    0.0800
     13 C13        -1.8885    1.6214   50.6492 C.3     1  ZINC001016082614   -0.1300
     14 C14        -0.4305    1.5786   51.0349 C.3     1  ZINC001016082614   -0.1300
     15 C15         0.4513    1.8346   49.7992 C.3     1  ZINC001016082614    0.1000
     16 N16        -0.0999    2.8946   48.9324 N.am    1  ZINC001016082614   -0.6000
     17 C17        -0.0760    2.7147   47.5970 C.2     1  ZINC001016082614    0.5000
     18 O18        -0.5224    3.5697   46.8618 O.2     1  ZINC001016082614   -0.5200
     19 C19         0.5053    1.4509   47.0172 C.3     1  ZINC001016082614    0.1100
     20 H20         1.2421    1.0276   47.6999 H       1  ZINC001016082614    0.1100
     21 C21         1.1525    1.7408   45.6448 C.3     1  ZINC001016082614   -0.1200
     22 C22        -0.0071    1.4163   44.6747 C.3     1  ZINC001016082614   -0.1600
     23 C23        -0.8718    0.4414   45.4430 C.2     1  ZINC001016082614    0.5300
     24 O24        -1.7223   -0.2698   44.9511 O.2     1  ZINC001016082614   -0.5300
     25 N25        -0.5599    0.4769   46.7521 N.am    1  ZINC001016082614   -0.7100
     26 C26        -0.6648    4.1177   49.4569 C.3     1  ZINC001016082614    0.1300
     27 C27        -2.1846    3.9276   49.6873 C.3     1  ZINC001016082614   -0.1600
     28 H28        -5.0545    3.0247   54.2509 H       1  ZINC001016082614    0.0700
     29 H29        -5.3011    1.7731   53.0095 H       1  ZINC001016082614    0.0500
     30 H30        -3.6634    2.1114   53.6194 H       1  ZINC001016082614    0.0600
     31 H31        -5.4003    4.0431   52.0166 H       1  ZINC001016082614    0.0900
     32 H32        -3.7627    4.3814   52.6264 H       1  ZINC001016082614    0.0900
     33 H33        -6.3637    0.2578   51.3255 H       1  ZINC001016082614    0.2000
     34 H34        -9.1502    3.2816   50.4777 H       1  ZINC001016082614    0.2600
     35 H35        -2.4522    0.9356   51.2817 H       1  ZINC001016082614    0.0700
     36 H36        -1.9973    1.3268   49.6054 H       1  ZINC001016082614    0.0800
     37 H37        -0.2324    2.3442   51.7851 H       1  ZINC001016082614    0.0700
     38 H38        -0.1950    0.5987   51.4502 H       1  ZINC001016082614    0.0800
     39 H39         1.4470    2.1301   50.1300 H       1  ZINC001016082614    0.0700
     40 H40         0.5305    0.9123   49.2237 H       1  ZINC001016082614    0.0800
     41 H41         1.4463    2.7874   45.5654 H       1  ZINC001016082614    0.1000
     42 H42         2.0040    1.0836   45.4685 H       1  ZINC001016082614    0.1000
     43 H43        -0.5692    2.3193   44.4366 H       1  ZINC001016082614    0.1100
     44 H44         0.3749    0.9527   43.7652 H       1  ZINC001016082614    0.1100
     45 H45        -0.9848   -0.0705   47.4310 H       1  ZINC001016082614    0.4200
     46 H46        -0.1808    4.3651   50.4017 H       1  ZINC001016082614    0.0800
     47 H47        -0.5037    4.9267   48.7444 H       1  ZINC001016082614    0.0900
     48 H48        -2.6334    3.4937   48.7938 H       1  ZINC001016082614    0.0900
     49 H49        -2.6436    4.8964   49.8844 H       1  ZINC001016082614    0.0700
@<TRIPOS>BOND
     1     1     2    1
     2     1    28    1
     3     1    29    1
     4     1    30    1
     5     2     3    1
     6     2    31    1
     7     2    32    1
     8     3     4   am
     9     3    11    1
    10     4     5    2
    11     4     6    1
    12     6    10    1
    13     6     7    2
    14     7     8    1
    15     7    33    1
    16     8     9    2
    17     9    10    1
    18     9    34    1
    19    11    12    1
    20    11    27    1
    21    11    13    1
    22    13    14    1
    23    13    35    1
    24    13    36    1
    25    14    15    1
    26    14    37    1
    27    14    38    1
    28    15    16    1
    29    15    39    1
    30    15    40    1
    31    16    17   am
    32    16    26    1
    33    17    18    2
    34    17    19    1
    35    19    20    1
    36    19    25    1
    37    19    21    1
    38    21    22    1
    39    21    41    1
    40    21    42    1
    41    22    23    1
    42    22    43    1
    43    22    44    1
    44    23    24    2
    45    23    25   am
    46    25    45    1
    47    26    27    1
    48    26    46    1
    49    26    47    1
    50    27    48    1
    51    27    49    1
@<TRIPOS>SUBSTRUCTURE
     1 ZINC001016082614        1 TEMP              0 ****  ****    0 ROOT


##########                                Name:    ZINC000822449555
##########                DOCK_Rotatable_Bonds:                   5
##########                         Heavy_Atoms:                  27
##########                    Molecular_Weight:             366.383
##########                DOCK_Rotatable_Bonds:                   5
##########                       Formal_Charge:          -0.0100009
##########                     HBond_Acceptors:                  10
##########                        HBond_Donors:                   2
##########                         Heavy_Atoms:                  27
##########                          Grid_Score:          -29.058018
##########                     Grid_vdw_energy:          -28.278557
##########                      Grid_es_energy:           -0.779462
##########           Internal_energy_repulsive:            7.950504

@<TRIPOS>MOLECULE
ZINC000822449555
 45 48 1 0 0
SMALL
USER_CHARGES


@<TRIPOS>ATOM
      1 C1         -8.2487    0.6280   55.0863 C.3     1  ZINC000822449555   -0.1100
      2 C2         -6.9888    1.4380   54.9193 C.ar    1  ZINC000822449555    0.1400
      3 N3         -6.5747    1.7576   53.7081 N.ar    1  ZINC000822449555   -0.5000
      4 C4         -5.4742    2.4673   53.5140 C.ar    1  ZINC000822449555    0.3000
      5 N5         -5.0769    2.7801   52.2168 N.3     1  ZINC000822449555   -0.4700
      6 C6         -6.2338    3.1389   51.3836 C.3     1  ZINC000822449555    0.0200
      7 C7         -5.7471    3.5322   49.9863 C.3     1  ZINC000822449555    0.0600
      8 O8         -4.9921    2.4531   49.4287 O.3     1  ZINC000822449555   -0.3800
      9 C9         -3.8574    2.0780   50.2144 C.3     1  ZINC000822449555    0.0600
     10 C10        -4.3250    1.6700   51.6139 C.3     1  ZINC000822449555    0.0300
     11 C11        -4.7108    2.9043   54.5911 C.ar    1  ZINC000822449555   -0.1700
     12 C12        -5.1141    2.5882   55.8756 C.ar    1  ZINC000822449555   -0.0500
     13 C13        -6.2810    1.8437   56.0408 C.ar    1  ZINC000822449555    0.0600
     14 N14        -6.7275    1.5004   57.3237 N.am    1  ZINC000822449555   -0.6600
     15 C15        -7.1570    2.4600   58.1670 C.2     1  ZINC000822449555    0.5700
     16 O16        -7.1570    3.6237   57.8146 O.2     1  ZINC000822449555   -0.5100
     17 C17        -7.6276    2.0980   59.5194 C.ar    1  ZINC000822449555   -0.1800
     18 C18        -8.0269    3.0924   60.4226 C.ar    1  ZINC000822449555   -0.0100
     19 C19        -8.4594    2.7056   61.6758 C.ar    1  ZINC000822449555   -0.1300
     20 C20        -8.4846    1.3495   61.9985 C.ar    1  ZINC000822449555    0.2300
     21 C21        -8.9478    0.9254   63.3423 C.2     1  ZINC000822449555    0.2100
     22 N22        -9.3680    1.7107   64.3149 N.2     1  ZINC000822449555   -0.2500
     23 N23        -9.6809    0.9638   65.3173 N.pl3   1  ZINC000822449555   -0.2200
     24 N24        -9.4726   -0.2692   65.0113 N.2     1  ZINC000822449555   -0.0400
     25 N25        -9.0264   -0.3316   63.8027 N.2     1  ZINC000822449555   -0.2500
     26 N26        -8.0998    0.4326   61.1188 N.ar    1  ZINC000822449555   -0.4500
     27 C27        -7.6866    0.7594   59.9140 C.ar    1  ZINC000822449555    0.1400
     28 H28        -9.1045    1.2988   55.1617 H       1  ZINC000822449555    0.0800
     29 H29        -8.3758   -0.0278   54.2250 H       1  ZINC000822449555    0.0800
     30 H30        -8.1769    0.0273   55.9930 H       1  ZINC000822449555    0.0700
     31 H31        -6.9065    2.2846   51.3076 H       1  ZINC000822449555    0.0600
     32 H32        -6.7610    3.9792   51.8352 H       1  ZINC000822449555    0.1000
     33 H33        -6.6051    3.7439   49.3483 H       1  ZINC000822449555    0.1100
     34 H34        -5.1172    4.4190   50.0566 H       1  ZINC000822449555    0.0600
     35 H35        -3.3488    1.2381   49.7412 H       1  ZINC000822449555    0.1000
     36 H36        -3.1727    2.9225   50.2912 H       1  ZINC000822449555    0.0600
     37 H37        -3.4590    1.4379   52.2338 H       1  ZINC000822449555    0.1000
     38 H38        -4.9672    0.7922   51.5416 H       1  ZINC000822449555    0.0600
     39 H39        -3.8139    3.4830   54.4266 H       1  ZINC000822449555    0.1400
     40 H40        -4.5407    2.9139   56.7309 H       1  ZINC000822449555    0.1500
     41 H41        -6.7275    0.5720   57.6049 H       1  ZINC000822449555    0.4100
     42 H42        -7.9965    4.1358   60.1455 H       1  ZINC000822449555    0.1600
     43 H43        -8.7742    3.4449   62.3974 H       1  ZINC000822449555    0.1600
     44 H44       -10.0202    1.2808   66.1688 H       1  ZINC000822449555    0.4800
     45 H45        -7.3817   -0.0146   59.2254 H       1  ZINC000822449555    0.1700
@<TRIPOS>BOND
     1     1     2    1
     2     1    28    1
     3     1    29    1
     4     1    30    1
     5     2    13   ar
     6     2     3   ar
     7     3     4   ar
     8     4     5    1
     9     4    11   ar
    10     5    10    1
    11     5     6    1
    12     6     7    1
    13     6    31    1
    14     6    32    1
    15     7     8    1
    16     7    33    1
    17     7    34    1
    18     8     9    1
    19     9    10    1
    20     9    35    1
    21     9    36    1
    22    10    37    1
    23    10    38    1
    24    11    12   ar
    25    11    39    1
    26    12    13   ar
    27    12    40    1
    28    13    14    1
    29    14    15   am
    30    14    41    1
    31    15    16    2
    32    15    17    1
    33    17    27   ar
    34    17    18   ar
    35    18    19   ar
    36    18    42    1
    37    19    20   ar
    38    19    43    1
    39    20    21    1
    40    20    26   ar
    41    21    25    1
    42    21    22    2
    43    22    23    1
    44    23    24    1
    45    23    44    1
    46    24    25    2
    47    26    27   ar
    48    27    45    1
@<TRIPOS>SUBSTRUCTURE
     1 ZINC000822449555        1 TEMP              0 ****  ****    0 ROOT


##########                                Name:    ZINC001023148918
##########                DOCK_Rotatable_Bonds:                   6
##########                         Heavy_Atoms:                  25
##########                    Molecular_Weight:             348.402
##########                DOCK_Rotatable_Bonds:                   6
##########                       Formal_Charge:           0.0199999
##########                     HBond_Acceptors:                   8
##########                        HBond_Donors:                   2
##########                         Heavy_Atoms:                  25
##########                          Grid_Score:          -29.052725
##########                     Grid_vdw_energy:          -27.762348
##########                      Grid_es_energy:           -1.290376
##########           Internal_energy_repulsive:           15.842778

@<TRIPOS>MOLECULE
ZINC001023148918
 49 52 1 0 0
SMALL
USER_CHARGES


@<TRIPOS>ATOM
      1 C1         -7.2089    1.4069   58.7522 C.3     1  ZINC001023148918   -0.0700
      2 C2         -6.6289    1.7796   57.4121 C.2     1  ZINC001023148918    0.0200
      3 N3         -5.5811    2.5370   57.2099 N.2     1  ZINC001023148918   -0.2700
      4 N4         -5.3421    2.6639   55.9543 N.pl3   1  ZINC001023148918   -0.2500
      5 C5         -4.2438    3.4438   55.3785 C.3     1  ZINC001023148918    0.0800
      6 C6         -6.2683    1.9604   55.2378 C.2     1  ZINC001023148918   -0.0400
      7 C7         -6.3498    1.8445   53.7731 C.2     1  ZINC001023148918    0.6000
      8 O8         -7.3288    1.3404   53.2564 O.2     1  ZINC001023148918   -0.5300
      9 N9         -5.3397    2.2971   53.0039 N.am    1  ZINC001023148918   -0.7000
     10 C10        -5.4210    2.1816   51.5458 C.3     1  ZINC001023148918    0.1500
     11 H11        -6.0058    1.3084   51.2571 H       1  ZINC001023148918    0.1200
     12 C12        -4.0078    2.1377   50.9126 C.3     1  ZINC001023148918    0.1000
     13 N13        -4.1957    2.6305   49.5359 N.am    1  ZINC001023148918   -0.6200
     14 C14        -3.3947    2.3561   48.4873 C.2     1  ZINC001023148918    0.5400
     15 O15        -3.6474    2.8169   47.3942 O.2     1  ZINC001023148918   -0.5200
     16 C16        -2.1852    1.4766   48.6730 C.3     1  ZINC001023148918   -0.1400
     17 H17        -2.4185    0.6339   49.3239 H       1  ZINC001023148918    0.1100
     18 C18        -0.9942    2.2927   49.2370 C.3     1  ZINC001023148918   -0.1400
     19 C19         0.0764    2.1628   48.1123 C.3     1  ZINC001023148918    0.0600
     20 H20         0.8432    2.9375   48.1053 H       1  ZINC001023148918    0.1300
     21 C21         0.6048    0.7004   48.2134 C.3     1  ZINC001023148918   -0.1500
     22 C22        -0.5793   -0.1314   47.6578 C.3     1  ZINC001023148918   -0.1500
     23 C23        -1.6477    0.9795   47.2975 C.3     1  ZINC001023148918    0.0900
     24 H24        -2.3986    0.6852   46.5643 H       1  ZINC001023148918    0.1400
     25 O25        -0.7704    2.0967   46.9181 O.3     1  ZINC001023148918   -0.3600
     26 C26        -5.4018    3.4703   49.4963 C.3     1  ZINC001023148918    0.0700
     27 C27        -6.0048    3.4745   50.9173 C.3     1  ZINC001023148918    0.0900
     28 H28        -5.6780    4.3539   51.4723 H       1  ZINC001023148918    0.0800
     29 O29        -7.4315    3.4157   50.8613 O.3     1  ZINC001023148918   -0.5500
     30 C30        -7.1106    1.3731   56.1657 C.2     1  ZINC001023148918   -0.1800
     31 H31        -6.7392    0.4905   59.1093 H       1  ZINC001023148918    0.0800
     32 H32        -7.0244    2.2112   59.4644 H       1  ZINC001023148918    0.0700
     33 H33        -8.2829    1.2496   58.6521 H       1  ZINC001023148918    0.0800
     34 H34        -3.3460    2.8275   55.3317 H       1  ZINC001023148918    0.0900
     35 H35        -4.5155    3.7669   54.3735 H       1  ZINC001023148918    0.1100
     36 H36        -4.0528    4.3174   56.0017 H       1  ZINC001023148918    0.0900
     37 H37        -4.5591    2.6991   53.4159 H       1  ZINC001023148918    0.4100
     38 H38        -3.3267    2.7897   51.4594 H       1  ZINC001023148918    0.0800
     39 H39        -3.6289    1.1157   50.9013 H       1  ZINC001023148918    0.0900
     40 H40        -1.2756    3.3355   49.3836 H       1  ZINC001023148918    0.0800
     41 H41        -0.6321    1.8548   50.1672 H       1  ZINC001023148918    0.0900
     42 H42         1.4933    0.5674   47.5963 H       1  ZINC001023148918    0.0800
     43 H43         0.8102    0.4349   49.2504 H       1  ZINC001023148918    0.0800
     44 H44        -0.2807   -0.6790   46.7639 H       1  ZINC001023148918    0.0800
     45 H45        -0.9638   -0.8113   48.4181 H       1  ZINC001023148918    0.0800
     46 H46        -5.1368    4.4861   49.2026 H       1  ZINC001023148918    0.0800
     47 H47        -6.1205    3.0538   48.7906 H       1  ZINC001023148918    0.0900
     48 H48        -7.8533    3.2745   51.7200 H       1  ZINC001023148918    0.3900
     49 H49        -7.9632    0.7403   55.9679 H       1  ZINC001023148918    0.1600
@<TRIPOS>BOND
     1     1     2    1
     2     1    31    1
     3     1    32    1
     4     1    33    1
     5     2    30    1
     6     2     3    2
     7     3     4    1
     8     4     5    1
     9     4     6    1
    10     5    34    1
    11     5    35    1
    12     5    36    1
    13     6     7    1
    14     6    30    2
    15     7     8    2
    16     7     9   am
    17     9    10    1
    18     9    37    1
    19    10    11    1
    20    10    27    1
    21    10    12    1
    22    12    13    1
    23    12    38    1
    24    12    39    1
    25    13    14   am
    26    13    26    1
    27    14    15    2
    28    14    16    1
    29    16    17    1
    30    16    23    1
    31    16    18    1
    32    18    19    1
    33    18    40    1
    34    18    41    1
    35    19    20    1
    36    19    25    1
    37    19    21    1
    38    21    22    1
    39    21    42    1
    40    21    43    1
    41    22    23    1
    42    22    44    1
    43    22    45    1
    44    23    24    1
    45    23    25    1
    46    26    27    1
    47    26    46    1
    48    26    47    1
    49    27    28    1
    50    27    29    1
    51    29    48    1
    52    30    49    1
@<TRIPOS>SUBSTRUCTURE
     1 ZINC001023148918        1 TEMP              0 ****  ****    0 ROOT


##########                                Name:    ZINC000001174632
##########                DOCK_Rotatable_Bonds:                   6
##########                         Heavy_Atoms:                  29
##########                    Molecular_Weight:             385.419
##########                DOCK_Rotatable_Bonds:                   6
##########                       Formal_Charge:           0.0400005
##########                     HBond_Acceptors:                   5
##########                        HBond_Donors:                   1
##########                         Heavy_Atoms:                  29
##########                          Grid_Score:          -29.031187
##########                     Grid_vdw_energy:          -26.451096
##########                      Grid_es_energy:           -2.580091
##########           Internal_energy_repulsive:           12.500913

@<TRIPOS>MOLECULE
ZINC000001174632
 48 51 1 0 0
SMALL
USER_CHARGES


@<TRIPOS>ATOM
      1 C1         -6.7835   -2.9009   58.6726 C.3     1  ZINC000001174632    0.0400
      2 O2         -8.1321   -3.2592   58.2713 O.3     1  ZINC000001174632   -0.3500
      3 C3         -8.9146   -2.2675   57.8017 C.2     1  ZINC000001174632    0.5200
      4 O4         -9.9562   -2.5323   57.2347 O.2     1  ZINC000001174632   -0.5200
      5 C5         -8.5070   -0.8622   57.9759 C.ar    1  ZINC000001174632   -0.2000
      6 C6         -7.9738   -0.1465   56.9012 C.ar    1  ZINC000001174632   -0.0200
      7 C7         -7.5951    1.1679   57.0708 C.ar    1  ZINC000001174632   -0.1800
      8 C8         -7.7400    1.7853   58.3027 C.ar    1  ZINC000001174632   -0.0300
      9 C9         -8.2648    1.0919   59.3746 C.ar    1  ZINC000001174632   -0.1900
     10 C10        -8.6578   -0.2319   59.2222 C.ar    1  ZINC000001174632    0.2600
     11 N11        -9.1863   -0.9316   60.2990 N.pl3   1  ZINC000001174632   -0.6500
     12 C12        -9.9654   -0.2830   61.2223 C.2     1  ZINC000001174632    0.2300
     13 C13       -11.3244   -0.0612   61.1083 C.2     1  ZINC000001174632   -0.1800
     14 C14       -12.1789   -0.4814   59.9757 C.ar    1  ZINC000001174632   -0.0600
     15 C15       -12.9124   -1.6662   60.0545 C.ar    1  ZINC000001174632   -0.0600
     16 C16       -13.7076   -2.0543   58.9966 C.ar    1  ZINC000001174632   -0.1500
     17 C17       -13.7787   -1.2687   57.8544 C.ar    1  ZINC000001174632    0.1400
     18 O18       -14.5638   -1.6548   56.8139 O.3     1  ZINC000001174632   -0.3200
     19 C19       -15.2859   -2.8787   56.9653 C.3     1  ZINC000001174632    0.0300
     20 C20       -13.0508   -0.0896   57.7721 C.ar    1  ZINC000001174632   -0.2100
     21 C21       -12.2580    0.3088   58.8279 C.ar    1  ZINC000001174632   -0.0500
     22 C22       -11.7759    0.6623   62.3037 C.2     1  ZINC000001174632    0.4500
     23 O23       -12.9110    1.0241   62.5442 O.2     1  ZINC000001174632   -0.4100
     24 C24       -10.5793    0.8684   63.1656 C.ar    1  ZINC000001174632   -0.1600
     25 C25       -10.4009    1.4785   64.3929 C.ar    1  ZINC000001174632   -0.0500
     26 C26        -9.1351    1.5201   64.9691 C.ar    1  ZINC000001174632   -0.1100
     27 C27        -8.0585    0.9554   64.3203 C.ar    1  ZINC000001174632   -0.0900
     28 C28        -8.2262    0.3392   63.0858 C.ar    1  ZINC000001174632   -0.0800
     29 C29        -9.4842    0.2856   62.5038 C.ar    1  ZINC000001174632   -0.0600
     30 H30        -6.8267   -2.1592   59.4703 H       1  ZINC000001174632    0.0700
     31 H31        -6.2627   -3.7890   59.0303 H       1  ZINC000001174632    0.1100
     32 H32        -6.2486   -2.4852   57.8186 H       1  ZINC000001174632    0.0700
     33 H33        -7.8582   -0.6226   55.9388 H       1  ZINC000001174632    0.1400
     34 H34        -7.1827    1.7195   56.2388 H       1  ZINC000001174632    0.1300
     35 H35        -7.4402    2.8155   58.4251 H       1  ZINC000001174632    0.1300
     36 H36        -8.3738    1.5802   60.3318 H       1  ZINC000001174632    0.1300
     37 H37        -9.0045   -1.8792   60.3979 H       1  ZINC000001174632    0.4300
     38 H38       -12.8571   -2.2783   60.9426 H       1  ZINC000001174632    0.1300
     39 H39       -14.2755   -2.9709   59.0569 H       1  ZINC000001174632    0.1300
     40 H40       -14.5840   -3.6976   57.1225 H       1  ZINC000001174632    0.0600
     41 H41       -15.9536   -2.8026   57.8236 H       1  ZINC000001174632    0.0600
     42 H42       -15.8709   -3.0691   56.0656 H       1  ZINC000001174632    0.1000
     43 H43       -13.1085    0.5187   56.8816 H       1  ZINC000001174632    0.1300
     44 H44       -11.6922    1.2265   58.7633 H       1  ZINC000001174632    0.1300
     45 H45       -11.2425    1.9226   64.9037 H       1  ZINC000001174632    0.1400
     46 H46        -8.9957    1.9969   65.9282 H       1  ZINC000001174632    0.1400
     47 H47        -7.0789    0.9922   64.7733 H       1  ZINC000001174632    0.1400
     48 H48        -7.3786   -0.1015   62.5821 H       1  ZINC000001174632    0.1300
@<TRIPOS>BOND
     1     1     2    1
     2     1    30    1
     3     1    31    1
     4     1    32    1
     5     2     3    1
     6     3     4    2
     7     3     5    1
     8     5    10   ar
     9     5     6   ar
    10     6     7   ar
    11     6    33    1
    12     7     8   ar
    13     7    34    1
    14     8     9   ar
    15     8    35    1
    16     9    10   ar
    17     9    36    1
    18    10    11    1
    19    11    12    1
    20    11    37    1
    21    12    29    1
    22    12    13    2
    23    13    14    1
    24    13    22    1
    25    14    21   ar
    26    14    15   ar
    27    15    16   ar
    28    15    38    1
    29    16    17   ar
    30    16    39    1
    31    17    18    1
    32    17    20   ar
    33    18    19    1
    34    19    40    1
    35    19    41    1
    36    19    42    1
    37    20    21   ar
    38    20    43    1
    39    21    44    1
    40    22    23    2
    41    22    24    1
    42    24    29   ar
    43    24    25   ar
    44    25    26   ar
    45    25    45    1
    46    26    27   ar
    47    26    46    1
    48    27    28   ar
    49    27    47    1
    50    28    29   ar
    51    28    48    1
@<TRIPOS>SUBSTRUCTURE
     1 ZINC000001174632        1 TEMP              0 ****  ****    0 ROOT


##########                                Name:    ZINC000007167963
##########                DOCK_Rotatable_Bonds:                   8
##########                         Heavy_Atoms:                  25
##########                    Molecular_Weight:             378.433
##########                DOCK_Rotatable_Bonds:                   8
##########                       Formal_Charge:        -1.01328e-06
##########                     HBond_Acceptors:                  10
##########                        HBond_Donors:                   3
##########                         Heavy_Atoms:                  25
##########                          Grid_Score:          -29.018013
##########                     Grid_vdw_energy:          -26.438557
##########                      Grid_es_energy:           -2.579457
##########           Internal_energy_repulsive:            7.872795

@<TRIPOS>MOLECULE
ZINC000007167963
 39 41 1 0 0
SMALL
USER_CHARGES


@<TRIPOS>ATOM
      1 C1         -9.1854    0.5653   55.8712 C.3     1  ZINC000007167963   -0.0800
      2 C2         -8.1243    1.1670   56.7562 C.2     1  ZINC000007167963    0.0900
      3 C3         -6.9519    1.7143   56.3339 C.2     1  ZINC000007167963   -0.1500
      4 C4         -6.4741    1.8350   54.9405 C.2     1  ZINC000007167963    0.2600
      5 N5         -7.1422    1.5116   53.8601 N.2     1  ZINC000007167963   -0.2700
      6 N6         -6.4194    1.7498   52.8228 N.2     1  ZINC000007167963   -0.2800
      7 C7         -5.2606    2.2348   53.1995 C.2     1  ZINC000007167963    0.1200
      8 S8         -3.9369    2.7144   52.1402 S.3     1  ZINC000007167963    0.1500
      9 C9         -4.4852    1.9581   50.5898 C.3     1  ZINC000007167963   -0.1200
     10 H10        -5.0018    1.0227   50.8047 H       1  ZINC000007167963    0.1400
     11 C11        -5.4376    2.9120   49.8660 C.3     1  ZINC000007167963   -0.1500
     12 C12        -3.2895    1.6822   49.7150 C.2     1  ZINC000007167963    0.5300
     13 O13        -3.3124    1.9901   48.5422 O.2     1  ZINC000007167963   -0.4900
     14 N14        -2.1949    1.0934   50.2361 N.am    1  ZINC000007167963   -0.6100
     15 C15        -1.0941    0.8411   49.4314 C.2     1  ZINC000007167963    0.0800
     16 C16         0.1008    1.5077   49.5141 C.2     1  ZINC000007167963   -0.2400
     17 C17         0.3654    2.5827   50.4754 C.2     1  ZINC000007167963    0.5900
     18 N18         0.8363    2.2879   51.7034 N.am    1  ZINC000007167963   -0.8400
     19 O19         0.1598    3.7413   50.1645 O.2     1  ZINC000007167963   -0.5600
     20 C20         1.0733    1.0368   48.5525 C.2     1  ZINC000007167963   -0.0900
     21 C21         0.6158    0.0574   47.7853 C.2     1  ZINC000007167963   -0.2800
     22 S22        -1.0387   -0.3451   48.2088 S.3     1  ZINC000007167963    0.3000
     23 O23        -5.2703    2.3045   54.5452 O.3     1  ZINC000007167963   -0.2000
     24 C24        -6.2605    2.1607   57.5504 C.2     1  ZINC000007167963   -0.1800
     25 C25        -7.0703    1.8445   58.5741 C.2     1  ZINC000007167963   -0.0300
     26 O26        -8.1774    1.2595   58.0926 O.3     1  ZINC000007167963   -0.1700
     27 H27       -10.0130    0.2112   56.4857 H       1  ZINC000007167963    0.0800
     28 H28        -9.5479    1.3203   55.1737 H       1  ZINC000007167963    0.1000
     29 H29        -8.7627   -0.2709   55.3143 H       1  ZINC000007167963    0.1000
     30 H30        -6.3024    3.1115   50.4987 H       1  ZINC000007167963    0.0900
     31 H31        -4.9210    3.8474   49.6511 H       1  ZINC000007167963    0.0800
     32 H32        -5.7678    2.4565   48.9324 H       1  ZINC000007167963    0.0800
     33 H33        -2.1771    0.8461   51.1738 H       1  ZINC000007167963    0.4400
     34 H34         1.0102    2.9992   52.3397 H       1  ZINC000007167963    0.4000
     35 H35         1.0014    1.3647   51.9508 H       1  ZINC000007167963    0.4100
     36 H36         2.0705    1.4424   48.4676 H       1  ZINC000007167963    0.1500
     37 H37         1.1856   -0.4294   47.0076 H       1  ZINC000007167963    0.1700
     38 H38        -5.2966    2.6443   57.6095 H       1  ZINC000007167963    0.1600
     39 H39        -6.8649    2.0347   59.6172 H       1  ZINC000007167963    0.2200
@<TRIPOS>BOND
     1     1     2    1
     2     1    27    1
     3     1    28    1
     4     1    29    1
     5     2    26    1
     6     2     3    2
     7     3     4    1
     8     3    24    1
     9     4    23    1
    10     4     5    2
    11     5     6    1
    12     6     7    2
    13     7     8    1
    14     7    23    1
    15     8     9    1
    16     9    10    1
    17     9    11    1
    18     9    12    1
    19    11    30    1
    20    11    31    1
    21    11    32    1
    22    12    13    2
    23    12    14   am
    24    14    15    1
    25    14    33    1
    26    15    22    1
    27    15    16    2
    28    16    17    1
    29    16    20    1
    30    17    18   am
    31    17    19    2
    32    18    34    1
    33    18    35    1
    34    20    21    2
    35    20    36    1
    36    21    22    1
    37    21    37    1
    38    24    25    2
    39    24    38    1
    40    25    26    1
    41    25    39    1
@<TRIPOS>SUBSTRUCTURE
     1 ZINC000007167963        1 TEMP              0 ****  ****    0 ROOT


##########                                Name:    ZINC000863246516
##########                DOCK_Rotatable_Bonds:                   5
##########                         Heavy_Atoms:                  25
##########                    Molecular_Weight:             356.489
##########                DOCK_Rotatable_Bonds:                   5
##########                       Formal_Charge:         -0.00999938
##########                     HBond_Acceptors:                   5
##########                        HBond_Donors:                   0
##########                         Heavy_Atoms:                  25
##########                          Grid_Score:          -29.017117
##########                     Grid_vdw_energy:          -27.003820
##########                      Grid_es_energy:           -2.013297
##########           Internal_energy_repulsive:           10.872799

@<TRIPOS>MOLECULE
ZINC000863246516
 49 52 1 0 0
SMALL
USER_CHARGES


@<TRIPOS>ATOM
      1 C1        -12.8705    3.0740   49.3344 C.3     1  ZINC000863246516   -0.0600
      2 C2        -11.8166    3.4340   50.3498 C.2     1  ZINC000863246516   -0.2000
      3 C3        -10.6847    4.0900   50.1358 C.2     1  ZINC000863246516    0.0900
      4 C4        -10.3024    4.5801   48.7630 C.3     1  ZINC000863246516   -0.1000
      5 N5         -9.8839    4.2996   51.2187 N.am    1  ZINC000863246516   -0.5300
      6 C6         -8.6102    5.0134   51.0989 C.3     1  ZINC000863246516    0.1200
      7 C7         -7.4998    4.0202   50.7506 C.3     1  ZINC000863246516   -0.1500
      8 C8         -6.1607    4.7005   50.8733 C.2     1  ZINC000863246516    0.5400
      9 O9         -6.0959    5.8448   51.2700 O.2     1  ZINC000863246516   -0.5300
     10 N10        -5.0351    4.0374   50.5420 N.am    1  ZINC000863246516   -0.6100
     11 C11        -3.6754    4.5840   50.6158 C.3     1  ZINC000863246516    0.1100
     12 C12        -2.7127    3.3814   50.5983 C.3     1  ZINC000863246516   -0.1300
     13 H13        -2.2970    3.1017   51.5662 H       1  ZINC000863246516    0.1000
     14 C14        -1.7308    3.4121   49.4153 C.3     1  ZINC000863246516   -0.1200
     15 C15        -2.8850    2.9035   48.5366 C.3     1  ZINC000863246516   -0.0600
     16 H16        -3.4864    3.7020   48.1019 H       1  ZINC000863246516    0.1000
     17 C17        -2.4614    1.8724   47.5225 C.ar    1  ZINC000863246516   -0.0700
     18 C18        -2.7685    2.0501   46.1864 C.ar    1  ZINC000863246516   -0.1200
     19 C19        -2.3800    1.1042   45.2563 C.ar    1  ZINC000863246516   -0.1200
     20 C20        -1.6840   -0.0191   45.6620 C.ar    1  ZINC000863246516   -0.1200
     21 C21        -1.3762   -0.1963   46.9979 C.ar    1  ZINC000863246516   -0.1200
     22 C22        -1.7610    0.7516   47.9276 C.ar    1  ZINC000863246516   -0.1200
     23 C23        -3.5018    2.2937   49.8278 C.3     1  ZINC000863246516   -0.1100
     24 H24        -3.2380    1.2568   50.0363 H       1  ZINC000863246516    0.1200
     25 C25        -4.9770    2.6545   50.0572 C.3     1  ZINC000863246516    0.1200
     26 C26       -10.3111    3.8254   52.3997 C.2     1  ZINC000863246516    0.4800
     27 O27        -9.7430    3.9110   53.4741 O.2     1  ZINC000863246516   -0.4700
     28 S28       -11.8301    3.0772   52.0857 S.3     1  ZINC000863246516    0.0100
     29 H29       -13.6825    2.5394   49.8274 H       1  ZINC000863246516    0.0700
     30 H30       -13.2596    3.9835   48.8766 H       1  ZINC000863246516    0.0800
     31 H31       -12.4318    2.4388   48.5649 H       1  ZINC000863246516    0.0800
     32 H32       -11.0800    4.3065   48.0499 H       1  ZINC000863246516    0.0900
     33 H33       -10.1919    5.6643   48.7820 H       1  ZINC000863246516    0.0800
     34 H34        -9.3586    4.1240   48.4640 H       1  ZINC000863246516    0.0800
     35 H35        -8.6868    5.7636   50.3118 H       1  ZINC000863246516    0.1000
     36 H36        -8.3772    5.5019   52.0450 H       1  ZINC000863246516    0.1000
     37 H37        -7.5413    3.1737   51.4360 H       1  ZINC000863246516    0.1000
     38 H38        -7.6357    3.6671   49.7283 H       1  ZINC000863246516    0.1000
     39 H39        -3.4846    5.2270   49.7564 H       1  ZINC000863246516    0.0700
     40 H40        -3.5500    5.1486   51.5397 H       1  ZINC000863246516    0.0800
     41 H41        -1.3937    4.4152   49.1544 H       1  ZINC000863246516    0.0800
     42 H42        -0.9102    2.7011   49.5114 H       1  ZINC000863246516    0.0900
     43 H43        -3.3121    2.9277   45.8694 H       1  ZINC000863246516    0.1200
     44 H44        -2.6205    1.2428   44.2125 H       1  ZINC000863246516    0.1200
     45 H45        -1.3811   -0.7584   44.9353 H       1  ZINC000863246516    0.1200
     46 H46        -0.8328   -1.0742   47.3150 H       1  ZINC000863246516    0.1200
     47 H47        -1.5206    0.6131   48.9714 H       1  ZINC000863246516    0.1200
     48 H48        -5.4136    1.9739   50.7881 H       1  ZINC000863246516    0.0700
     49 H49        -5.5238    2.5858   49.1168 H       1  ZINC000863246516    0.0700
@<TRIPOS>BOND
     1     1     2    1
     2     1    29    1
     3     1    30    1
     4     1    31    1
     5     2    28    1
     6     2     3    2
     7     3     4    1
     8     3     5    1
     9     4    32    1
    10     4    33    1
    11     4    34    1
    12     5     6    1
    13     5    26   am
    14     6     7    1
    15     6    35    1
    16     6    36    1
    17     7     8    1
    18     7    37    1
    19     7    38    1
    20     8     9    2
    21     8    10   am
    22    10    25    1
    23    10    11    1
    24    11    12    1
    25    11    39    1
    26    11    40    1
    27    12    13    1
    28    12    23    1
    29    12    14    1
    30    14    15    1
    31    14    41    1
    32    14    42    1
    33    15    16    1
    34    15    17    1
    35    15    23    1
    36    17    22   ar
    37    17    18   ar
    38    18    19   ar
    39    18    43    1
    40    19    20   ar
    41    19    44    1
    42    20    21   ar
    43    20    45    1
    44    21    22   ar
    45    21    46    1
    46    22    47    1
    47    23    24    1
    48    23    25    1
    49    25    48    1
    50    25    49    1
    51    26    27    2
    52    26    28    1
@<TRIPOS>SUBSTRUCTURE
     1 ZINC000863246516        1 TEMP              0 ****  ****    0 ROOT


##########                                Name:    ZINC001011676549
##########                DOCK_Rotatable_Bonds:                   6
##########                         Heavy_Atoms:                  24
##########                    Molecular_Weight:             330.387
##########                DOCK_Rotatable_Bonds:                   6
##########                       Formal_Charge:        -1.49012e-07
##########                     HBond_Acceptors:                   7
##########                        HBond_Donors:                   1
##########                         Heavy_Atoms:                  24
##########                          Grid_Score:          -29.000742
##########                     Grid_vdw_energy:          -27.470747
##########                      Grid_es_energy:           -1.529994
##########           Internal_energy_repulsive:           14.046406

@<TRIPOS>MOLECULE
ZINC001011676549
 46 48 1 0 0
SMALL
USER_CHARGES


@<TRIPOS>ATOM
      1 C1         -6.5745    1.2892   50.5417 C.3     1  ZINC001011676549   -0.1700
      2 C2         -6.4360    2.5704   51.3664 C.3     1  ZINC001011676549    0.1300
      3 H3         -6.5745    2.3470   52.4242 H       1  ZINC001011676549    0.0900
      4 C4         -5.0421    3.1925   51.1395 C.3     1  ZINC001011676549    0.1400
      5 H5         -4.6699    3.6499   52.0562 H       1  ZINC001011676549    0.1100
      6 N6         -4.0994    2.1858   50.6451 N.am    1  ZINC001011676549   -0.7200
      7 C7         -2.7838    2.4704   50.5774 C.2     1  ZINC001011676549    0.5200
      8 O8         -2.3804    3.5603   50.9242 O.2     1  ZINC001011676549   -0.5300
      9 C9         -1.8140    1.4342   50.0705 C.3     1  ZINC001011676549   -0.0900
     10 C10        -1.9576    1.3001   48.5763 C.ar    1  ZINC001011676549   -0.1800
     11 C11        -2.4968    2.3290   47.8201 C.ar    1  ZINC001011676549    0.1600
     12 N12        -2.6074    2.1754   46.5104 N.ar    1  ZINC001011676549   -0.5200
     13 C13        -2.2126    1.0624   45.9253 C.ar    1  ZINC001011676549    0.3000
     14 N14        -1.6956    0.0635   46.6121 N.ar    1  ZINC001011676549   -0.5200
     15 C15        -1.5486    0.1475   47.9246 C.ar    1  ZINC001011676549    0.1600
     16 C16        -5.3150    4.2721   50.0590 C.3     1  ZINC001011676549   -0.1400
     17 C17        -6.7259    4.7672   50.4635 C.3     1  ZINC001011676549    0.1000
     18 N18        -7.4343    3.5570   50.9288 N.am    1  ZINC001011676549   -0.6100
     19 C19        -8.7712    3.3869   50.9452 C.2     1  ZINC001011676549    0.5800
     20 O20        -9.2465    2.3439   51.3516 O.2     1  ZINC001011676549   -0.5300
     21 C21        -9.6554    4.4629   50.4715 C.2     1  ZINC001011676549   -0.1400
     22 C22       -10.0034    5.4195   51.3132 C.2     1  ZINC001011676549   -0.1500
     23 C23       -10.9087    6.5528   50.9205 C.3     1  ZINC001011676549    0.0900
     24 O24       -11.0098    6.6298   49.4972 O.3     1  ZINC001011676549   -0.3800
     25 C25       -11.3322    5.3740   48.8878 C.3     1  ZINC001011676549    0.0600
     26 C26       -10.1274    4.4395   49.0435 C.3     1  ZINC001011676549   -0.1100
     27 H27        -6.4472    1.5220   49.4844 H       1  ZINC001011676549    0.0600
     28 H28        -5.8121    0.5741   50.8506 H       1  ZINC001011676549    0.0700
     29 H29        -7.5628    0.8586   50.7025 H       1  ZINC001011676549    0.0800
     30 H30        -4.4222    1.3146   50.3666 H       1  ZINC001011676549    0.4100
     31 H31        -0.7961    1.7407   50.3116 H       1  ZINC001011676549    0.1100
     32 H32        -2.0265    0.4755   50.5434 H       1  ZINC001011676549    0.1100
     33 H33        -2.8225    3.2435   48.2934 H       1  ZINC001011676549    0.1700
     34 H34        -2.3160    0.9662   44.8545 H       1  ZINC001011676549    0.2000
     35 H35        -1.1238   -0.6747   48.4815 H       1  ZINC001011676549    0.1700
     36 H36        -4.5852    5.0794   50.1203 H       1  ZINC001011676549    0.0900
     37 H37        -5.3262    3.8325   49.0616 H       1  ZINC001011676549    0.0800
     38 H38        -6.6551    5.4972   51.2699 H       1  ZINC001011676549    0.0800
     39 H39        -7.2374    5.1994   49.6034 H       1  ZINC001011676549    0.0800
     40 H40        -9.6227    5.3856   52.3233 H       1  ZINC001011676549    0.1200
     41 H41       -11.8992    6.3879   51.3447 H       1  ZINC001011676549    0.0700
     42 H42       -10.5039    7.4888   51.3053 H       1  ZINC001011676549    0.1100
     43 H43       -12.2027    4.9406   49.3802 H       1  ZINC001011676549    0.0600
     44 H44       -11.5436    5.5242   47.8290 H       1  ZINC001011676549    0.1000
     45 H45        -9.3246    4.7691   48.3839 H       1  ZINC001011676549    0.0900
     46 H46       -10.4197    3.4232   48.7791 H       1  ZINC001011676549    0.0900
@<TRIPOS>BOND
     1     1     2    1
     2     1    27    1
     3     1    28    1
     4     1    29    1
     5     2     3    1
     6     2    18    1
     7     2     4    1
     8     4     5    1
     9     4     6    1
    10     4    16    1
    11     6     7   am
    12     6    30    1
    13     7     8    2
    14     7     9    1
    15     9    10    1
    16     9    31    1
    17     9    32    1
    18    10    15   ar
    19    10    11   ar
    20    11    12   ar
    21    11    33    1
    22    12    13   ar
    23    13    14   ar
    24    13    34    1
    25    14    15   ar
    26    15    35    1
    27    16    17    1
    28    16    36    1
    29    16    37    1
    30    17    18    1
    31    17    38    1
    32    17    39    1
    33    18    19   am
    34    19    20    2
    35    19    21    1
    36    21    26    1
    37    21    22    2
    38    22    23    1
    39    22    40    1
    40    23    24    1
    41    23    41    1
    42    23    42    1
    43    24    25    1
    44    25    26    1
    45    25    43    1
    46    25    44    1
    47    26    45    1
    48    26    46    1
@<TRIPOS>SUBSTRUCTURE
     1 ZINC001011676549        1 TEMP              0 ****  ****    0 ROOT


##########                                Name:    ZINC000541000201
##########                DOCK_Rotatable_Bonds:                  10
##########                         Heavy_Atoms:                  30
##########                    Molecular_Weight:             420.413
##########                DOCK_Rotatable_Bonds:                  10
##########                       Formal_Charge:               -0.03
##########                     HBond_Acceptors:                   9
##########                        HBond_Donors:                   1
##########                         Heavy_Atoms:                  30
##########                          Grid_Score:          -28.976448
##########                     Grid_vdw_energy:          -28.884771
##########                      Grid_es_energy:           -0.091676
##########           Internal_energy_repulsive:           14.673704

@<TRIPOS>MOLECULE
ZINC000541000201
 52 54 1 0 0
SMALL
USER_CHARGES


@<TRIPOS>ATOM
      1 C1         -5.9588    5.6470   55.6766 C.3     1  ZINC000541000201    0.0400
      2 O2         -6.9959    5.4346   54.6828 O.3     1  ZINC000541000201   -0.3500
      3 C3         -7.5564    4.2157   54.6379 C.2     1  ZINC000541000201    0.4500
      4 O4         -8.7472    4.0919   54.8008 O.2     1  ZINC000541000201   -0.4900
      5 C5         -6.7004    3.0017   54.3843 C.3     1  ZINC000541000201    0.2100
      6 H6         -5.8371    3.0203   55.0496 H       1  ZINC000541000201    0.1400
      7 N7         -6.2441    3.0081   52.9921 N.am    1  ZINC000541000201   -0.7100
      8 C8         -4.9568    2.7324   52.7036 C.2     1  ZINC000541000201    0.5800
      9 O9         -4.1745    2.4768   53.5985 O.2     1  ZINC000541000201   -0.5300
     10 C10        -4.4966    2.7406   51.3010 C.ar    1  ZINC000541000201   -0.2300
     11 C11        -3.1676    3.0626   50.9898 C.ar    1  ZINC000541000201    0.0200
     12 C12        -2.7851    3.0569   49.6639 C.ar    1  ZINC000541000201   -0.2000
     13 C13        -3.7218    2.7346   48.6871 C.ar    1  ZINC000541000201    0.3500
     14 O14        -3.3519    2.7273   47.3837 O.3     1  ZINC000541000201   -0.2900
     15 C15        -2.0242    2.2886   47.0886 C.3     1  ZINC000541000201    0.0800
     16 C16        -1.7711    0.8840   47.6903 C.3     1  ZINC000541000201   -0.1400
     17 C17        -0.6207    0.3369   46.8091 C.3     1  ZINC000541000201   -0.1200
     18 C18        -0.9550    0.8460   45.3917 C.3     1  ZINC000541000201   -0.1200
     19 C19        -1.8473    2.0870   45.5695 C.3     1  ZINC000541000201   -0.1200
     20 N20        -4.9699    2.4344   49.0130 N.ar    1  ZINC000541000201   -0.5400
     21 C21        -5.3762    2.4225   50.2651 C.ar    1  ZINC000541000201    0.1800
     22 C22        -7.5070    1.7553   54.6428 C.ar    1  ZINC000541000201   -0.1300
     23 C23        -7.3708    1.0816   55.8426 C.ar    1  ZINC000541000201   -0.0700
     24 C24        -8.1091   -0.0612   56.0820 C.ar    1  ZINC000541000201   -0.1300
     25 C25        -8.9879   -0.5326   55.1176 C.ar    1  ZINC000541000201    0.1200
     26 O26        -9.7156   -1.6564   55.3510 O.3     1  ZINC000541000201   -0.3200
     27 C27       -11.0435   -1.4778   55.8477 C.3     1  ZINC000541000201    0.4100
     28 F28       -11.6935   -0.4920   55.0974 F       1  ZINC000541000201   -0.2000
     29 F29       -11.7465   -2.6829   55.7430 F       1  ZINC000541000201   -0.2000
     30 C30        -9.1229    0.1454   53.9148 C.ar    1  ZINC000541000201   -0.1900
     31 C31        -8.3860    1.2904   53.6822 C.ar    1  ZINC000541000201   -0.0500
     32 H32        -5.5916    6.6708   55.6055 H       1  ZINC000541000201    0.1000
     33 H33        -6.3689    5.4764   56.6721 H       1  ZINC000541000201    0.0600
     34 H34        -5.1372    4.9532   55.4984 H       1  ZINC000541000201    0.0600
     35 H35        -6.8685    3.2109   52.2780 H       1  ZINC000541000201    0.4100
     36 H36        -2.4611    3.3094   51.7685 H       1  ZINC000541000201    0.1600
     37 H37        -1.7697    3.3002   49.3876 H       1  ZINC000541000201    0.1500
     38 H38        -1.2941    3.0046   47.4660 H       1  ZINC000541000201    0.1000
     39 H39        -1.4573    0.9604   48.7313 H       1  ZINC000541000201    0.0700
     40 H40        -2.6591    0.2586   47.5983 H       1  ZINC000541000201    0.0800
     41 H41         0.3375    0.7360   47.1417 H       1  ZINC000541000201    0.0700
     42 H42        -0.6092   -0.7529   46.8301 H       1  ZINC000541000201    0.0700
     43 H43        -0.0390    1.1169   44.8666 H       1  ZINC000541000201    0.0700
     44 H44        -1.4912    0.0771   44.8356 H       1  ZINC000541000201    0.0700
     45 H45        -2.8166    1.9203   45.0996 H       1  ZINC000541000201    0.0800
     46 H46        -1.3644    2.9600   45.1306 H       1  ZINC000541000201    0.0700
     47 H47        -6.4019    2.1724   50.4923 H       1  ZINC000541000201    0.1600
     48 H48        -6.6866    1.4490   56.5931 H       1  ZINC000541000201    0.1300
     49 H49        -8.0019   -0.5874   57.0190 H       1  ZINC000541000201    0.1400
     50 H50       -11.0024   -1.1708   56.8928 H       1  ZINC000541000201    0.1900
     51 H51        -9.8062   -0.2198   53.1623 H       1  ZINC000541000201    0.1400
     52 H52        -8.4911    1.8188   52.7461 H       1  ZINC000541000201    0.1400
@<TRIPOS>BOND
     1     1     2    1
     2     1    32    1
     3     1    33    1
     4     1    34    1
     5     2     3    1
     6     3     4    2
     7     3     5    1
     8     5     6    1
     9     5     7    1
    10     5    22    1
    11     7     8   am
    12     7    35    1
    13     8     9    2
    14     8    10    1
    15    10    21   ar
    16    10    11   ar
    17    11    12   ar
    18    11    36    1
    19    12    13   ar
    20    12    37    1
    21    13    14    1
    22    13    20   ar
    23    14    15    1
    24    15    19    1
    25    15    16    1
    26    15    38    1
    27    16    17    1
    28    16    39    1
    29    16    40    1
    30    17    18    1
    31    17    41    1
    32    17    42    1
    33    18    19    1
    34    18    43    1
    35    18    44    1
    36    19    45    1
    37    19    46    1
    38    20    21   ar
    39    21    47    1
    40    22    31   ar
    41    22    23   ar
    42    23    24   ar
    43    23    48    1
    44    24    25   ar
    45    24    49    1
    46    25    26    1
    47    25    30   ar
    48    26    27    1
    49    27    28    1
    50    27    29    1
    51    27    50    1
    52    30    31   ar
    53    30    51    1
    54    31    52    1
@<TRIPOS>SUBSTRUCTURE
     1 ZINC000541000201        1 TEMP              0 ****  ****    0 ROOT


##########                                Name:    ZINC000826052721
##########                DOCK_Rotatable_Bonds:                   3
##########                         Heavy_Atoms:                  29
##########                    Molecular_Weight:             393.399
##########                DOCK_Rotatable_Bonds:                   3
##########                       Formal_Charge:        -4.47035e-07
##########                     HBond_Acceptors:                   9
##########                        HBond_Donors:                   2
##########                         Heavy_Atoms:                  29
##########                          Grid_Score:          -28.972792
##########                     Grid_vdw_energy:          -28.304743
##########                      Grid_es_energy:           -0.668048
##########           Internal_energy_repulsive:           19.012491

@<TRIPOS>MOLECULE
ZINC000826052721
 46 50 1 0 0
SMALL
USER_CHARGES


@<TRIPOS>ATOM
      1 C1        -10.7719   -0.2200   53.8446 C.3     1  ZINC000826052721   -0.0400
      2 N2        -11.3941   -1.1798   54.7663 N.4     1  ZINC000826052721   -0.3800
      3 H3        -11.1986   -2.1202   54.4571 H       1  ZINC000826052721    0.4300
      4 C4        -12.8436   -0.9641   54.7943 C.3     1  ZINC000826052721    0.0500
      5 C5        -13.4884   -1.8343   55.8405 C.ar    1  ZINC000826052721   -0.1300
      6 C6        -14.8531   -2.0662   55.7607 C.ar    1  ZINC000826052721   -0.1000
      7 C7        -15.4833   -2.8535   56.7037 C.ar    1  ZINC000826052721   -0.1000
      8 C8        -14.7513   -3.4142   57.7334 C.ar    1  ZINC000826052721   -0.0800
      9 C9        -13.3917   -3.1855   57.8136 C.ar    1  ZINC000826052721   -0.0800
     10 C10       -12.7584   -2.3963   56.8668 C.ar    1  ZINC000826052721   -0.1200
     11 C11       -11.2724   -2.1738   56.9877 C.3     1  ZINC000826052721    0.1100
     12 H12       -10.7440   -3.0671   56.6548 H       1  ZINC000826052721    0.1100
     13 N13       -10.9322   -1.8989   58.3900 N.3     1  ZINC000826052721   -0.6200
     14 C14        -9.6908   -1.2987   58.4901 C.ar    1  ZINC000826052721    0.1600
     15 C15        -8.5195   -2.0629   58.5286 C.ar    1  ZINC000826052721   -0.0400
     16 C16        -8.5884   -3.5372   58.4626 C.2     1  ZINC000826052721    0.0700
     17 N17        -7.5607   -4.3806   58.3395 N.2     1  ZINC000826052721   -0.3800
     18 N18        -8.0416   -5.5768   58.3234 N.2     1  ZINC000826052721   -0.1600
     19 N19        -9.3234   -5.5212   58.4214 N.2     1  ZINC000826052721   -0.1700
     20 N20        -9.6912   -4.2886   58.5083 N.pl3   1  ZINC000826052721   -0.3400
     21 C21        -7.2793   -1.4158   58.6258 C.ar    1  ZINC000826052721    0.1800
     22 N22        -7.1881   -0.1114   58.6912 N.ar    1  ZINC000826052721   -0.4700
     23 C23        -8.2711    0.6770   58.6643 C.ar    1  ZINC000826052721    0.0900
     24 C24        -8.1444    2.0761   58.7379 C.ar    1  ZINC000826052721    0.1700
     25 F25        -6.9213    2.6415   58.8355 F       1  ZINC000826052721   -0.1100
     26 C26        -9.2600    2.8599   58.7092 C.ar    1  ZINC000826052721   -0.1900
     27 C27       -10.5306    2.2962   58.6089 C.ar    1  ZINC000826052721    0.1300
     28 F28       -11.6172    3.0987   58.5834 F       1  ZINC000826052721   -0.1300
     29 C29       -10.6899    0.9424   58.5365 C.ar    1  ZINC000826052721   -0.1500
     30 C30        -9.5632    0.1086   58.5628 C.ar    1  ZINC000826052721   -0.0600
     31 C31       -10.8564   -0.9844   56.1210 C.3     1  ZINC000826052721    0.0000
     32 H32       -10.9809    0.7954   54.1818 H       1  ZINC000826052721    0.1200
     33 H33        -9.6940   -0.3816   53.8248 H       1  ZINC000826052721    0.1300
     34 H34       -11.1789   -0.3614   52.8434 H       1  ZINC000826052721    0.1200
     35 H35       -13.2620   -1.2064   53.8174 H       1  ZINC000826052721    0.1400
     36 H36       -13.0469    0.0823   55.0220 H       1  ZINC000826052721    0.1400
     37 H37       -15.4261   -1.6289   54.9564 H       1  ZINC000826052721    0.1300
     38 H38       -16.5464   -3.0312   56.6368 H       1  ZINC000826052721    0.1300
     39 H39       -15.2413   -4.0299   58.4732 H       1  ZINC000826052721    0.1300
     40 H40       -12.8193   -3.6241   58.6176 H       1  ZINC000826052721    0.1400
     41 H41       -10.9721   -2.7415   58.9436 H       1  ZINC000826052721    0.4100
     42 H42        -6.3769   -2.0086   58.6516 H       1  ZINC000826052721    0.1800
     43 H43        -9.1574    3.9336   58.7657 H       1  ZINC000826052721    0.1600
     44 H44       -11.6791    0.5157   58.4596 H       1  ZINC000826052721    0.1400
     45 H45       -11.2575   -0.0642   56.5457 H       1  ZINC000826052721    0.1400
     46 H46        -9.7687   -0.9265   56.0770 H       1  ZINC000826052721    0.1400
@<TRIPOS>BOND
     1     1     2    1
     2     1    32    1
     3     1    33    1
     4     1    34    1
     5     2     3    1
     6     2    31    1
     7     2     4    1
     8     4     5    1
     9     4    35    1
    10     4    36    1
    11     5    10   ar
    12     5     6   ar
    13     6     7   ar
    14     6    37    1
    15     7     8   ar
    16     7    38    1
    17     8     9   ar
    18     8    39    1
    19     9    10   ar
    20     9    40    1
    21    10    11    1
    22    11    12    1
    23    11    13    1
    24    11    31    1
    25    13    14    1
    26    13    41    1
    27    14    30   ar
    28    14    15   ar
    29    15    16    1
    30    15    21   ar
    31    16    20    1
    32    16    17    2
    33    17    18    1
    34    18    19    2
    35    19    20    1
    36    21    22   ar
    37    21    42    1
    38    22    23   ar
    39    23    30   ar
    40    23    24   ar
    41    24    25    1
    42    24    26   ar
    43    26    27   ar
    44    26    43    1
    45    27    28    1
    46    27    29   ar
    47    29    30   ar
    48    29    44    1
    49    31    45    1
    50    31    46    1
@<TRIPOS>SUBSTRUCTURE
     1 ZINC000826052721        1 TEMP              0 ****  ****    0 ROOT


##########                                Name:    ZINC000956479608
##########                DOCK_Rotatable_Bonds:                   5
##########                         Heavy_Atoms:                  25
##########                    Molecular_Weight:             345.442
##########                DOCK_Rotatable_Bonds:                   5
##########                       Formal_Charge:          -0.0100001
##########                     HBond_Acceptors:                   6
##########                        HBond_Donors:                   1
##########                         Heavy_Atoms:                  25
##########                          Grid_Score:          -28.970982
##########                     Grid_vdw_energy:          -28.793348
##########                      Grid_es_energy:           -0.177634
##########           Internal_energy_repulsive:           32.688316

@<TRIPOS>MOLECULE
ZINC000956479608
 52 55 1 0 0
SMALL
USER_CHARGES


@<TRIPOS>ATOM
      1 C1         -1.3396   -0.6864   46.9264 C.3     1  ZINC000956479608   -0.0900
      2 C2         -1.7718    0.6749   46.4455 C.2     1  ZINC000956479608   -0.1100
      3 C3         -2.0473    1.7862   47.1947 C.2     1  ZINC000956479608   -0.1000
      4 C4         -1.9818    1.9038   48.6636 C.2     1  ZINC000956479608    0.6100
      5 O5         -1.6109    0.9591   49.3332 O.2     1  ZINC000956479608   -0.5000
      6 N6         -2.3330    3.0585   49.2635 N.am    1  ZINC000956479608   -0.7100
      7 C7         -2.2696    3.1748   50.7225 C.3     1  ZINC000956479608    0.1800
      8 C8         -0.8378    2.9109   51.1931 C.3     1  ZINC000956479608   -0.1700
      9 C9         -2.6915    4.5853   51.1404 C.3     1  ZINC000956479608   -0.1500
     10 C10        -4.1126    4.8587   50.6379 C.3     1  ZINC000956479608    0.1100
     11 N11        -4.9997    3.7940   51.1258 N.am    1  ZINC000956479608   -0.6100
     12 C12        -6.1235    4.0947   51.8065 C.2     1  ZINC000956479608    0.5500
     13 O13        -6.4113    5.2533   52.0202 O.2     1  ZINC000956479608   -0.5400
     14 C14        -7.0223    2.9913   52.3019 C.3     1  ZINC000956479608   -0.1900
     15 H15        -6.6671    2.4542   53.1814 H       1  ZINC000956479608    0.1200
     16 C16        -8.5255    3.1892   52.1573 C.3     1  ZINC000956479608   -0.1100
     17 H17        -8.8402    4.1208   51.6869 H       1  ZINC000956479608    0.1000
     18 C18        -9.4638    2.6766   53.2388 C.3     1  ZINC000956479608   -0.0900
     19 C19        -9.1420    1.2220   53.5817 C.3     1  ZINC000956479608   -0.1200
     20 C20        -9.1855    0.3947   52.2919 C.3     1  ZINC000956479608   -0.1200
     21 C21        -7.9320    0.7028   51.4729 C.3     1  ZINC000956479608   -0.0900
     22 C22        -7.8118    2.1931   51.2529 C.3     1  ZINC000956479608   -0.1100
     23 H23        -7.6893    2.5040   50.2154 H       1  ZINC000956479608    0.1100
     24 C24        -4.6389    2.3954   50.8571 C.3     1  ZINC000956479608    0.1000
     25 C25        -3.2119    2.1495   51.3571 C.3     1  ZINC000956479608   -0.1400
     26 O26        -2.3899    2.7508   46.3200 O.3     1  ZINC000956479608    0.1200
     27 N27        -2.3494    2.3495   45.1805 N.2     1  ZINC000956479608   -0.3400
     28 C28        -1.9813    1.1031   45.1157 C.2     1  ZINC000956479608   -0.0100
     29 H29        -0.2515   -0.7239   46.9806 H       1  ZINC000956479608    0.0800
     30 H30        -1.7592   -0.8727   47.9150 H       1  ZINC000956479608    0.0900
     31 H31        -1.6952   -1.4470   46.2314 H       1  ZINC000956479608    0.0800
     32 H32        -2.6277    3.8125   48.7293 H       1  ZINC000956479608    0.4100
     33 H33        -0.1663    3.6408   50.7408 H       1  ZINC000956479608    0.0800
     34 H34        -0.7904    2.9974   52.2786 H       1  ZINC000956479608    0.0700
     35 H35        -0.5366    1.9066   50.8951 H       1  ZINC000956479608    0.0600
     36 H36        -2.6683    4.6649   52.2272 H       1  ZINC000956479608    0.0800
     37 H37        -2.0059    5.3135   50.7071 H       1  ZINC000956479608    0.1000
     38 H38        -4.4550    5.8218   51.0164 H       1  ZINC000956479608    0.0900
     39 H39        -4.1191    4.8690   49.5479 H       1  ZINC000956479608    0.0600
     40 H40        -9.3516    3.2901   54.1327 H       1  ZINC000956479608    0.0700
     41 H41       -10.4922    2.7435   52.8840 H       1  ZINC000956479608    0.0700
     42 H42        -8.1467    1.1613   54.0219 H       1  ZINC000956479608    0.0600
     43 H43        -9.8805    0.8402   54.2865 H       1  ZINC000956479608    0.0700
     44 H44        -9.2098   -0.6668   52.5386 H       1  ZINC000956479608    0.0700
     45 H45       -10.0728    0.6597   51.7168 H       1  ZINC000956479608    0.0700
     46 H46        -7.0528    0.3481   52.0108 H       1  ZINC000956479608    0.0700
     47 H47        -7.9945    0.1933   50.5113 H       1  ZINC000956479608    0.0700
     48 H48        -5.3287    1.7331   51.3803 H       1  ZINC000956479608    0.0900
     49 H49        -4.6883    2.2047   49.7850 H       1  ZINC000956479608    0.0700
     50 H50        -2.8968    1.1441   51.0781 H       1  ZINC000956479608    0.0900
     51 H51        -3.1839    2.2521   52.4420 H       1  ZINC000956479608    0.0900
     52 H52        -1.8663    0.5096   44.2208 H       1  ZINC000956479608    0.2000
@<TRIPOS>BOND
     1     1     2    1
     2     1    29    1
     3     1    30    1
     4     1    31    1
     5     2    28    1
     6     2     3    2
     7     3     4    1
     8     3    26    1
     9     4     5    2
    10     4     6   am
    11     6     7    1
    12     6    32    1
    13     7    25    1
    14     7     8    1
    15     7     9    1
    16     8    33    1
    17     8    34    1
    18     8    35    1
    19     9    10    1
    20     9    36    1
    21     9    37    1
    22    10    11    1
    23    10    38    1
    24    10    39    1
    25    11    12   am
    26    11    24    1
    27    12    13    2
    28    12    14    1
    29    14    15    1
    30    14    22    1
    31    14    16    1
    32    16    17    1
    33    16    22    1
    34    16    18    1
    35    18    19    1
    36    18    40    1
    37    18    41    1
    38    19    20    1
    39    19    42    1
    40    19    43    1
    41    20    21    1
    42    20    44    1
    43    20    45    1
    44    21    22    1
    45    21    46    1
    46    21    47    1
    47    22    23    1
    48    24    25    1
    49    24    48    1
    50    24    49    1
    51    25    50    1
    52    25    51    1
    53    26    27    1
    54    27    28    2
    55    28    52    1
@<TRIPOS>SUBSTRUCTURE
     1 ZINC000956479608        1 TEMP              0 ****  ****    0 ROOT


##########                                Name:    ZINC000481050680
##########                DOCK_Rotatable_Bonds:                   7
##########                         Heavy_Atoms:                  29
##########                    Molecular_Weight:              412.46
##########                DOCK_Rotatable_Bonds:                   7
##########                       Formal_Charge:          -0.0199997
##########                     HBond_Acceptors:                   7
##########                        HBond_Donors:                   1
##########                         Heavy_Atoms:                  29
##########                          Grid_Score:          -28.969248
##########                     Grid_vdw_energy:          -26.890657
##########                      Grid_es_energy:           -2.078590
##########           Internal_energy_repulsive:           10.498035

@<TRIPOS>MOLECULE
ZINC000481050680
 47 49 1 0 0
SMALL
USER_CHARGES


@<TRIPOS>ATOM
      1 N1         -8.8945   -7.2923   57.7401 N.1     1  ZINC000481050680   -0.3900
      2 C2         -8.7336   -6.1755   57.8706 C.1     1  ZINC000481050680    0.2500
      3 C3         -8.5307   -4.7674   58.0351 C.ar    1  ZINC000481050680    0.0200
      4 C4         -7.3258   -4.2886   58.5529 C.ar    1  ZINC000481050680   -0.0800
      5 C5         -7.1355   -2.9310   58.7088 C.ar    1  ZINC000481050680   -0.0800
      6 C6         -8.1349   -2.0435   58.3537 C.ar    1  ZINC000481050680   -0.1000
      7 C7         -7.9193   -0.5621   58.5270 C.3     1  ZINC000481050680   -0.5900
      8 S8         -8.1969   -0.1095   60.2616 S.o2    1  ZINC000481050680    2.6000
      9 O9         -9.5826   -0.1542   60.5730 O.2     1  ZINC000481050680   -0.9300
     10 O10        -7.2367   -0.7370   61.1004 O.2     1  ZINC000481050680   -0.9400
     11 N11        -7.8135    1.4999   60.3350 N.am    1  ZINC000481050680   -1.1100
     12 C12        -8.5477    2.4660   59.5141 C.3     1  ZINC000481050680    0.2100
     13 H13        -9.0423    1.9447   58.6946 H       1  ZINC000481050680    0.1000
     14 C14        -7.5716    3.4986   58.9465 C.3     1  ZINC000481050680   -0.0800
     15 C15        -6.9947    2.9861   57.6521 C.ar    1  ZINC000481050680   -0.0900
     16 C16        -5.6263    2.9878   57.4567 C.ar    1  ZINC000481050680   -0.1200
     17 C17        -5.0970    2.5177   56.2694 C.ar    1  ZINC000481050680   -0.1200
     18 C18        -5.9362    2.0455   55.2776 C.ar    1  ZINC000481050680   -0.1200
     19 C19        -7.3046    2.0430   55.4733 C.ar    1  ZINC000481050680   -0.1200
     20 C20        -7.8336    2.5091   56.6624 C.ar    1  ZINC000481050680   -0.1200
     21 C21        -9.5801    3.1635   60.3618 C.ar    1  ZINC000481050680   -0.1300
     22 C22        -9.2733    3.5381   61.6559 C.ar    1  ZINC000481050680   -0.0700
     23 C23       -10.2205    4.1780   62.4339 C.ar    1  ZINC000481050680   -0.1300
     24 C24       -11.4752    4.4432   61.9183 C.ar    1  ZINC000481050680   -0.0900
     25 C25       -11.7845    4.0690   60.6243 C.ar    1  ZINC000481050680   -0.1500
     26 C26       -10.8348    3.4342   59.8421 C.ar    1  ZINC000481050680    0.1100
     27 F27       -11.1360    3.0679   58.5771 F       1  ZINC000481050680   -0.1400
     28 C28        -9.3338   -2.5107   57.8385 C.ar    1  ZINC000481050680    0.1200
     29 F29       -10.3054   -1.6377   57.4933 F       1  ZINC000481050680   -0.1200
     30 C30        -9.5349   -3.8674   57.6729 C.ar    1  ZINC000481050680   -0.1000
     31 H31        -6.5440   -4.9798   58.8312 H       1  ZINC000481050680    0.1500
     32 H32        -6.2036   -2.5603   59.1096 H       1  ZINC000481050680    0.1500
     33 H33        -6.8977   -0.3081   58.2442 H       1  ZINC000481050680    0.1500
     34 H34        -8.6181   -0.0166   57.8928 H       1  ZINC000481050680    0.1500
     35 H35        -7.1029    1.8029   60.9217 H       1  ZINC000481050680    0.4200
     36 H36        -8.0990    4.4348   58.7637 H       1  ZINC000481050680    0.0900
     37 H37        -6.7665    3.6687   59.6611 H       1  ZINC000481050680    0.0900
     38 H38        -4.9706    3.3568   58.2316 H       1  ZINC000481050680    0.1200
     39 H39        -4.0279    2.5197   56.1165 H       1  ZINC000481050680    0.1200
     40 H40        -5.5227    1.6789   54.3497 H       1  ZINC000481050680    0.1200
     41 H41        -7.9603    1.6744   54.6983 H       1  ZINC000481050680    0.1200
     42 H42        -8.9027    2.5071   56.8153 H       1  ZINC000481050680    0.1200
     43 H43        -8.2935    3.3307   62.0600 H       1  ZINC000481050680    0.1300
     44 H44        -9.9798    4.4705   63.4453 H       1  ZINC000481050680    0.1300
     45 H45       -12.2144    4.9428   62.5270 H       1  ZINC000481050680    0.1300
     46 H46       -12.7652    4.2758   60.2218 H       1  ZINC000481050680    0.1400
     47 H47       -10.4690   -4.2314   57.2712 H       1  ZINC000481050680    0.1600
@<TRIPOS>BOND
     1     1     2    3
     2     2     3    1
     3     3    30   ar
     4     3     4   ar
     5     4     5   ar
     6     4    31    1
     7     5     6   ar
     8     5    32    1
     9     6     7    1
    10     6    28   ar
    11     7     8    1
    12     7    33    1
    13     7    34    1
    14     8     9    2
    15     8    10    2
    16     8    11   am
    17    11    12    1
    18    11    35    1
    19    12    13    1
    20    12    14    1
    21    12    21    1
    22    14    15    1
    23    14    36    1
    24    14    37    1
    25    15    20   ar
    26    15    16   ar
    27    16    17   ar
    28    16    38    1
    29    17    18   ar
    30    17    39    1
    31    18    19   ar
    32    18    40    1
    33    19    20   ar
    34    19    41    1
    35    20    42    1
    36    21    26   ar
    37    21    22   ar
    38    22    23   ar
    39    22    43    1
    40    23    24   ar
    41    23    44    1
    42    24    25   ar
    43    24    45    1
    44    25    26   ar
    45    25    46    1
    46    26    27    1
    47    28    29    1
    48    28    30   ar
    49    30    47    1
@<TRIPOS>SUBSTRUCTURE
     1 ZINC000481050680        1 TEMP              0 ****  ****    0 ROOT


##########                                Name:    ZINC000329637067
##########                DOCK_Rotatable_Bonds:                   5
##########                         Heavy_Atoms:                  26
##########                    Molecular_Weight:             362.429
##########                DOCK_Rotatable_Bonds:                   5
##########                       Formal_Charge:           0.0199998
##########                     HBond_Acceptors:                   8
##########                        HBond_Donors:                   0
##########                         Heavy_Atoms:                  26
##########                          Grid_Score:          -28.968672
##########                     Grid_vdw_energy:          -27.937990
##########                      Grid_es_energy:           -1.030681
##########           Internal_energy_repulsive:           27.042553

@<TRIPOS>MOLECULE
ZINC000329637067
 52 54 1 0 0
SMALL
USER_CHARGES


@<TRIPOS>ATOM
      1 C1         -7.5802    0.1255   58.0054 C.3     1  ZINC000329637067   -0.1300
      2 C2         -8.2898   -1.1562   57.6522 C.2     1  ZINC000329637067    0.2200
      3 C3         -7.8585   -2.3435   58.1569 C.2     1  ZINC000329637067   -0.2900
      4 C4         -8.5373   -3.5156   57.8111 C.2     1  ZINC000329637067    0.2800
      5 C5         -8.0791   -4.8432   58.3575 C.3     1  ZINC000329637067   -0.1200
      6 N6         -9.5791   -3.4567   57.0065 N.2     1  ZINC000329637067   -0.5500
      7 C7         -9.9979   -2.2882   56.5143 C.2     1  ZINC000329637067    0.6400
      8 O8        -10.9649   -2.2610   55.7716 O.2     1  ZINC000329637067   -0.5300
      9 N9         -9.3717   -1.1393   56.8305 N.am    1  ZINC000329637067   -0.5000
     10 C10        -9.8503    0.1302   56.2781 C.3     1  ZINC000329637067    0.0700
     11 C11        -9.2845    0.3212   54.8944 C.2     1  ZINC000329637067    0.5100
     12 O12        -8.5508   -0.5190   54.4181 O.2     1  ZINC000329637067   -0.5200
     13 N13        -9.5939    1.4253   54.1862 N.am    1  ZINC000329637067   -0.6100
     14 C14       -10.4815    2.4517   54.7496 C.3     1  ZINC000329637067    0.1000
     15 C15        -9.7769    3.8096   54.6718 C.3     1  ZINC000329637067   -0.1400
     16 C16        -9.3470    4.0747   53.2271 C.3     1  ZINC000329637067   -0.1000
     17 C17        -8.3615    2.9929   52.7797 C.3     1  ZINC000329637067   -0.1200
     18 H18        -7.4963    2.9921   53.4427 H       1  ZINC000329637067    0.1000
     19 C19        -7.9133    3.2732   51.3685 C.2     1  ZINC000329637067    0.5300
     20 O20        -8.4869    4.1110   50.7052 O.2     1  ZINC000329637067   -0.5300
     21 N21        -6.8750    2.5929   50.8435 N.am    1  ZINC000329637067   -0.6200
     22 C22        -6.4154    2.8536   49.4700 C.3     1  ZINC000329637067    0.0800
     23 C23        -4.8995    3.0796   49.5022 C.3     1  ZINC000329637067    0.0500
     24 O24        -4.2755    1.9891   50.1843 O.3     1  ZINC000329637067   -0.3800
     25 C25        -4.6634    1.8564   51.5539 C.3     1  ZINC000329637067    0.0500
     26 C26        -6.1636    1.5718   51.6287 C.3     1  ZINC000329637067    0.0700
     27 C27        -9.0452    1.6285   52.8386 C.3     1  ZINC000329637067    0.1200
     28 H28        -8.2937    0.8300   58.4330 H       1  ZINC000329637067    0.0900
     29 H29        -6.7948   -0.0823   58.7320 H       1  ZINC000329637067    0.1000
     30 H30        -7.1390    0.5561   57.1065 H       1  ZINC000329637067    0.0900
     31 H31        -7.0031   -2.3800   58.8153 H       1  ZINC000329637067    0.1600
     32 H32        -8.5885   -5.0435   59.3001 H       1  ZINC000329637067    0.1000
     33 H33        -8.3149   -5.6314   57.6425 H       1  ZINC000329637067    0.0900
     34 H34        -7.0024   -4.8149   58.5252 H       1  ZINC000329637067    0.0900
     35 H35       -10.9390    0.1168   56.2267 H       1  ZINC000329637067    0.1200
     36 H36        -9.5269    0.9504   56.9192 H       1  ZINC000329637067    0.1300
     37 H37       -11.4083    2.4875   54.1771 H       1  ZINC000329637067    0.0800
     38 H38       -10.7015    2.2133   55.7903 H       1  ZINC000329637067    0.0900
     39 H39       -10.4606    4.5935   54.9976 H       1  ZINC000329637067    0.0900
     40 H40        -8.8985    3.8012   55.3171 H       1  ZINC000329637067    0.0700
     41 H41       -10.2230    4.0585   52.5788 H       1  ZINC000329637067    0.0800
     42 H42        -8.8671    5.0514   53.1645 H       1  ZINC000329637067    0.0800
     43 H43        -6.6455    1.9966   48.8371 H       1  ZINC000329637067    0.0800
     44 H44        -6.9108    3.7425   49.0797 H       1  ZINC000329637067    0.1000
     45 H45        -4.5183    3.1373   48.4826 H       1  ZINC000329637067    0.1100
     46 H46        -4.6811    4.0098   50.0266 H       1  ZINC000329637067    0.0600
     47 H47        -4.1124    1.0342   52.0103 H       1  ZINC000329637067    0.1100
     48 H48        -4.4441    2.7822   52.0857 H       1  ZINC000329637067    0.0600
     49 H49        -6.4931    1.6096   52.6670 H       1  ZINC000329637067    0.1000
     50 H50        -6.3714    0.5860   51.2127 H       1  ZINC000329637067    0.0800
     51 H51        -8.3194    0.8461   52.6163 H       1  ZINC000329637067    0.1000
     52 H52        -9.8563    1.5946   52.1111 H       1  ZINC000329637067    0.0800
@<TRIPOS>BOND
     1     1     2    1
     2     1    28    1
     3     1    29    1
     4     1    30    1
     5     2     9    1
     6     2     3    2
     7     3     4    1
     8     3    31    1
     9     4     5    1
    10     4     6    2
    11     5    32    1
    12     5    33    1
    13     5    34    1
    14     6     7    1
    15     7     8    2
    16     7     9   am
    17     9    10    1
    18    10    11    1
    19    10    35    1
    20    10    36    1
    21    11    12    2
    22    11    13   am
    23    13    27    1
    24    13    14    1
    25    14    15    1
    26    14    37    1
    27    14    38    1
    28    15    16    1
    29    15    39    1
    30    15    40    1
    31    16    17    1
    32    16    41    1
    33    16    42    1
    34    17    18    1
    35    17    19    1
    36    17    27    1
    37    19    20    2
    38    19    21   am
    39    21    26    1
    40    21    22    1
    41    22    23    1
    42    22    43    1
    43    22    44    1
    44    23    24    1
    45    23    45    1
    46    23    46    1
    47    24    25    1
    48    25    26    1
    49    25    47    1
    50    25    48    1
    51    26    49    1
    52    26    50    1
    53    27    51    1
    54    27    52    1
@<TRIPOS>SUBSTRUCTURE
     1 ZINC000329637067        1 TEMP              0 ****  ****    0 ROOT


##########                                Name:    ZINC000054627026
##########                DOCK_Rotatable_Bonds:                   5
##########                         Heavy_Atoms:                  28
##########                    Molecular_Weight:              370.37
##########                DOCK_Rotatable_Bonds:                   5
##########                       Formal_Charge:         6.85453e-07
##########                     HBond_Acceptors:                   8
##########                        HBond_Donors:                   2
##########                         Heavy_Atoms:                  28
##########                          Grid_Score:          -28.947279
##########                     Grid_vdw_energy:          -28.695730
##########                      Grid_es_energy:           -0.251548
##########           Internal_energy_repulsive:            6.186170

@<TRIPOS>MOLECULE
ZINC000054627026
 42 46 1 0 0
SMALL
USER_CHARGES


@<TRIPOS>ATOM
      1 O1        -12.1811   -2.7373   60.1993 O.2     1  ZINC000054627026   -0.5200
      2 C2        -12.3490   -2.0624   59.2018 C.2     1  ZINC000054627026    0.6100
      3 N3        -11.4531   -1.1106   58.8734 N.am    1  ZINC000054627026   -0.6500
      4 C4        -10.3317   -0.8949   59.6841 C.ar    1  ZINC000054627026    0.1400
      5 C5         -9.0534   -0.9920   59.1382 C.ar    1  ZINC000054627026   -0.0900
      6 C6         -7.9412   -0.7817   59.9251 C.ar    1  ZINC000054627026   -0.0900
      7 C7         -8.0917   -0.4714   61.2689 C.ar    1  ZINC000054627026    0.0500
      8 N8         -7.2017   -0.2107   62.2963 N.pl3   1  ZINC000054627026   -0.5900
      9 C9         -7.9444    0.0343   63.4223 C.2     1  ZINC000054627026    0.3700
     10 C10        -7.3926    0.3566   64.7466 C.2     1  ZINC000054627026    0.0200
     11 C11        -7.8035   -0.1701   65.9348 C.2     1  ZINC000054627026   -0.1200
     12 C12        -7.0058    0.4155   66.9345 C.2     1  ZINC000054627026   -0.2200
     13 C13        -6.1554    1.2621   66.3175 C.2     1  ZINC000054627026   -0.0100
     14 O14        -6.3883    1.2203   64.9969 O.3     1  ZINC000054627026   -0.1700
     15 N15        -9.2236   -0.0622   63.1390 N.2     1  ZINC000054627026   -0.4600
     16 C16        -9.3781   -0.3713   61.8287 C.ar    1  ZINC000054627026    0.0700
     17 C17       -10.4994   -0.5815   61.0199 C.ar    1  ZINC000054627026   -0.0900
     18 C18       -13.5300   -2.2895   58.3480 C.2     1  ZINC000054627026   -0.1000
     19 C19       -13.8141   -1.6297   57.1858 C.2     1  ZINC000054627026    0.1000
     20 N20       -14.9776   -2.1369   56.7233 N.pl3   1  ZINC000054627026   -0.3100
     21 C21       -15.6495   -1.7559   55.5531 C.ar    1  ZINC000054627026    0.1300
     22 C22       -15.1193   -0.7651   54.7378 C.ar    1  ZINC000054627026   -0.1200
     23 C23       -15.7832   -0.3923   53.5855 C.ar    1  ZINC000054627026   -0.1000
     24 C24       -16.9751   -1.0045   53.2436 C.ar    1  ZINC000054627026   -0.1100
     25 C25       -17.5059   -1.9913   54.0540 C.ar    1  ZINC000054627026   -0.1000
     26 C26       -16.8434   -2.3727   55.2043 C.ar    1  ZINC000054627026   -0.1000
     27 N27       -15.3835   -3.1182   57.6389 N.2     1  ZINC000054627026   -0.0500
     28 N28       -14.5059   -3.1848   58.5787 N.2     1  ZINC000054627026   -0.2000
     29 H29       -11.5849   -0.5750   58.0754 H       1  ZINC000054627026    0.4200
     30 H30        -8.9333   -1.2337   58.0926 H       1  ZINC000054627026    0.1500
     31 H31        -6.9531   -0.8588   59.4958 H       1  ZINC000054627026    0.1300
     32 H32        -6.2339   -0.2033   62.2318 H       1  ZINC000054627026    0.4300
     33 H33        -8.5897   -0.8961   66.0806 H       1  ZINC000054627026    0.1600
     34 H34        -7.0633    0.2238   67.9957 H       1  ZINC000054627026    0.1600
     35 H35        -5.4085    1.8704   66.8058 H       1  ZINC000054627026    0.2100
     36 H36       -11.4922   -0.5021   61.4378 H       1  ZINC000054627026    0.1400
     37 H37       -13.2225   -0.8521   56.7256 H       1  ZINC000054627026    0.2100
     38 H38       -14.1888   -0.2861   55.0045 H       1  ZINC000054627026    0.1400
     39 H39       -15.3713    0.3784   52.9508 H       1  ZINC000054627026    0.1400
     40 H40       -17.4926   -0.7111   52.3423 H       1  ZINC000054627026    0.1400
     41 H41       -18.4371   -2.4674   53.7846 H       1  ZINC000054627026    0.1400
     42 H42       -17.2584   -3.1435   55.8368 H       1  ZINC000054627026    0.1400
@<TRIPOS>BOND
     1     1     2    2
     2     2     3   am
     3     2    18    1
     4     3     4    1
     5     3    29    1
     6     4    17   ar
     7     4     5   ar
     8     5     6   ar
     9     5    30    1
    10     6     7   ar
    11     6    31    1
    12     7    16   ar
    13     7     8    1
    14     8     9    1
    15     8    32    1
    16     9    10    1
    17     9    15    2
    18    10    14    1
    19    10    11    2
    20    11    12    1
    21    11    33    1
    22    12    13    2
    23    12    34    1
    24    13    14    1
    25    13    35    1
    26    15    16    1
    27    16    17   ar
    28    17    36    1
    29    18    28    1
    30    18    19    2
    31    19    20    1
    32    19    37    1
    33    20    21    1
    34    20    27    1
    35    21    26   ar
    36    21    22   ar
    37    22    23   ar
    38    22    38    1
    39    23    24   ar
    40    23    39    1
    41    24    25   ar
    42    24    40    1
    43    25    26   ar
    44    25    41    1
    45    26    42    1
    46    27    28    2
@<TRIPOS>SUBSTRUCTURE
     1 ZINC000054627026        1 TEMP              0 ****  ****    0 ROOT


##########                                Name:    ZINC000751548479
##########                DOCK_Rotatable_Bonds:                   9
##########                         Heavy_Atoms:                  27
##########                    Molecular_Weight:             389.407
##########                DOCK_Rotatable_Bonds:                   9
##########                       Formal_Charge:           0.0199995
##########                     HBond_Acceptors:                   9
##########                        HBond_Donors:                   2
##########                         Heavy_Atoms:                  27
##########                          Grid_Score:          -28.910583
##########                     Grid_vdw_energy:          -27.805561
##########                      Grid_es_energy:           -1.105022
##########           Internal_energy_repulsive:           10.576648

@<TRIPOS>MOLECULE
ZINC000751548479
 43 44 1 0 0
SMALL
USER_CHARGES


@<TRIPOS>ATOM
      1 C1        -11.2808   -0.1283   55.1430 C.3     1  ZINC000751548479   -0.1600
      2 C2        -10.0600    0.5737   54.5446 C.3     1  ZINC000751548479    0.0800
      3 O3         -9.7883    0.0315   53.2254 O.3     1  ZINC000751548479   -0.3600
      4 C4         -8.7205    0.5248   52.5698 C.2     1  ZINC000751548479    0.6500
      5 O5         -8.0809   -0.1912   51.8250 O.2     1  ZINC000751548479   -0.5400
      6 N6         -8.3614    1.8126   52.7398 N.am    1  ZINC000751548479   -0.6500
      7 C7         -7.2541    2.3243   52.0600 C.ar    1  ZINC000751548479    0.2000
      8 C8         -7.3749    2.7270   50.7379 C.ar    1  ZINC000751548479   -0.1000
      9 C9         -6.2813    3.2330   50.0644 C.ar    1  ZINC000751548479   -0.1000
     10 C10        -5.0515    3.3432   50.7043 C.ar    1  ZINC000751548479    0.1300
     11 N11        -3.9486    3.8571   50.0129 N.am    1  ZINC000751548479   -1.0500
     12 S12        -3.0889    2.8840   48.9851 S.o2    1  ZINC000751548479    2.6800
     13 O13        -4.0309    2.3245   48.0804 O.2     1  ZINC000751548479   -0.9500
     14 O14        -1.9622    3.6408   48.5646 O.2     1  ZINC000751548479   -0.9400
     15 C15        -2.4595    1.5436   49.9403 C.2     1  ZINC000751548479   -0.7500
     16 C16        -1.5238    0.7518   49.4353 C.2     1  ZINC000751548479    0.0700
     17 C17        -1.0098    0.9922   48.0706 C.ar    1  ZINC000751548479   -0.1100
     18 C18        -1.7689    0.6188   46.9606 C.ar    1  ZINC000751548479   -0.0600
     19 C19        -1.2848    0.8459   45.6892 C.ar    1  ZINC000751548479   -0.1600
     20 C20        -0.0469    1.4432   45.5129 C.ar    1  ZINC000751548479    0.1200
     21 F21         0.4229    1.6630   44.2654 F       1  ZINC000751548479   -0.1300
     22 C22         0.7106    1.8163   46.6116 C.ar    1  ZINC000751548479   -0.1600
     23 C23         0.2336    1.5986   47.8874 C.ar    1  ZINC000751548479   -0.0500
     24 C24        -4.9155    2.9462   52.0240 C.ar    1  ZINC000751548479   -0.0600
     25 C25        -6.0182    2.4378   52.7137 C.ar    1  ZINC000751548479   -0.0300
     26 C26        -5.8857    2.0257   54.0787 C.1     1  ZINC000751548479    0.2500
     27 N27        -5.7804    1.6987   55.1615 N.1     1  ZINC000751548479   -0.4000
     28 H28       -11.0821   -1.1970   55.2233 H       1  ZINC000751548479    0.0700
     29 H29       -11.4847    0.2787   56.1333 H       1  ZINC000751548479    0.0900
     30 H30       -12.1450    0.0332   54.4987 H       1  ZINC000751548479    0.0700
     31 H31       -10.2587    1.6425   54.4644 H       1  ZINC000751548479    0.0800
     32 H32        -9.1959    0.4122   55.1889 H       1  ZINC000751548479    0.0800
     33 H33        -8.8720    2.3840   53.3344 H       1  ZINC000751548479    0.4200
     34 H34        -8.3268    2.6440   50.2343 H       1  ZINC000751548479    0.1600
     35 H35        -6.3812    3.5446   49.0351 H       1  ZINC000751548479    0.1700
     36 H36        -3.6876    4.7832   50.1359 H       1  ZINC000751548479    0.4300
     37 H37        -2.8361    1.3672   50.9369 H       1  ZINC000751548479    0.1700
     38 H38        -1.1371   -0.0690   50.0212 H       1  ZINC000751548479    0.1500
     39 H39        -2.7335    0.1526   47.0970 H       1  ZINC000751548479    0.1400
     40 H40        -1.8714    0.5573   44.8295 H       1  ZINC000751548479    0.1400
     41 H41         1.6746    2.2818   46.4687 H       1  ZINC000751548479    0.1400
     42 H42         0.8246    1.8900   48.7430 H       1  ZINC000751548479    0.1400
     43 H43        -3.9598    3.0324   52.5195 H       1  ZINC000751548479    0.1500
@<TRIPOS>BOND
     1     1     2    1
     2     1    28    1
     3     1    29    1
     4     1    30    1
     5     2     3    1
     6     2    31    1
     7     2    32    1
     8     3     4    1
     9     4     5    2
    10     4     6   am
    11     6     7    1
    12     6    33    1
    13     7    25   ar
    14     7     8   ar
    15     8     9   ar
    16     8    34    1
    17     9    10   ar
    18     9    35    1
    19    10    11    1
    20    10    24   ar
    21    11    12   am
    22    11    36    1
    23    12    13    2
    24    12    14    2
    25    12    15    1
    26    15    16    2
    27    15    37    1
    28    16    17    1
    29    16    38    1
    30    17    23   ar
    31    17    18   ar
    32    18    19   ar
    33    18    39    1
    34    19    20   ar
    35    19    40    1
    36    20    21    1
    37    20    22   ar
    38    22    23   ar
    39    22    41    1
    40    23    42    1
    41    24    25   ar
    42    24    43    1
    43    25    26    1
    44    26    27    3
@<TRIPOS>SUBSTRUCTURE
     1 ZINC000751548479        1 TEMP              0 ****  ****    0 ROOT


##########                                Name:    ZINC001067560454
##########                DOCK_Rotatable_Bonds:                   4
##########                         Heavy_Atoms:                  25
##########                    Molecular_Weight:             342.444
##########                DOCK_Rotatable_Bonds:                   4
##########                       Formal_Charge:          0.00999971
##########                     HBond_Acceptors:                   7
##########                        HBond_Donors:                   1
##########                         Heavy_Atoms:                  25
##########                          Grid_Score:          -28.895090
##########                     Grid_vdw_energy:          -27.237886
##########                      Grid_es_energy:           -1.657204
##########           Internal_energy_repulsive:           11.219357

@<TRIPOS>MOLECULE
ZINC001067560454
 51 54 1 0 0
SMALL
USER_CHARGES


@<TRIPOS>ATOM
      1 C1         -7.1015   -1.1049   58.9654 C.3     1  ZINC001067560454   -0.1500
      2 C2         -8.2760   -0.6135   59.8140 C.3     1  ZINC001067560454    0.1000
      3 H3         -8.8614   -1.4681   60.1534 H       1  ZINC001067560454    0.0600
      4 C4         -7.7433    0.1536   61.0264 C.3     1  ZINC001067560454   -0.1200
      5 C5         -8.9222    0.6604   61.8617 C.3     1  ZINC001067560454    0.1400
      6 H6         -9.4971   -0.1880   62.2330 H       1  ZINC001067560454    0.0900
      7 N7         -8.4196    1.4439   62.9930 N.am    1  ZINC001067560454   -0.7200
      8 C8         -8.3889    0.9025   64.2269 C.2     1  ZINC001067560454    0.5400
      9 O9         -8.7785   -0.2327   64.4009 O.2     1  ZINC001067560454   -0.5300
     10 C10        -7.8702    1.7078   65.3904 C.3     1  ZINC001067560454   -0.1100
     11 C11        -8.3400    3.1636   65.3617 C.3     1  ZINC001067560454   -0.1300
     12 C12        -8.0687    1.0212   66.7520 C.3     1  ZINC001067560454   -0.1200
     13 C13        -6.6982    0.3600   66.5299 C.3     1  ZINC001067560454   -0.1400
     14 C14        -6.3577    1.5530   65.6212 C.3     1  ZINC001067560454   -0.1200
     15 C15        -9.8174    1.5408   60.9854 C.3     1  ZINC001067560454   -0.1200
     16 C16       -10.2900    0.7336   59.7742 C.3     1  ZINC001067560454    0.0600
     17 N17        -9.1255    0.2722   59.0076 N.3     1  ZINC001067560454   -0.4900
     18 C18        -9.5182   -0.3499   57.8354 C.ar    1  ZINC001067560454    0.4400
     19 C19        -9.1424    0.1696   56.5851 C.ar    1  ZINC001067560454   -0.0800
     20 N20        -8.4169    1.2381   56.1765 N.2     1  ZINC001067560454   -0.4700
     21 C21        -8.3738    1.2607   54.8760 C.2     1  ZINC001067560454    0.2700
     22 N22        -9.0712    0.2051   54.3685 N.pl3   1  ZINC001067560454   -0.4800
     23 C23        -9.2530   -0.1122   52.9499 C.3     1  ZINC001067560454    0.0800
     24 C24        -9.5710   -0.5062   55.4299 C.ar    1  ZINC001067560454    0.2800
     25 N25       -10.3096   -1.6032   55.5601 N.ar    1  ZINC001067560454   -0.5200
     26 C26       -10.6374   -2.0538   56.7528 C.ar    1  ZINC001067560454    0.3300
     27 N27       -10.2549   -1.4557   57.8662 N.ar    1  ZINC001067560454   -0.5100
     28 H28        -6.5160   -0.2504   58.6258 H       1  ZINC001067560454    0.0700
     29 H29        -6.4711   -1.7626   59.5637 H       1  ZINC001067560454    0.0700
     30 H30        -7.4807   -1.6516   58.1021 H       1  ZINC001067560454    0.0500
     31 H31        -7.1254   -0.5084   61.6330 H       1  ZINC001067560454    0.0800
     32 H32        -7.1466    1.0005   60.6877 H       1  ZINC001067560454    0.0800
     33 H33        -8.1091    2.3522   62.8541 H       1  ZINC001067560454    0.4000
     34 H34        -9.4205    3.1940   65.2221 H       1  ZINC001067560454    0.0600
     35 H35        -8.0815    3.6474   66.3036 H       1  ZINC001067560454    0.0700
     36 H36        -7.8524    3.6866   64.5389 H       1  ZINC001067560454    0.0600
     37 H37        -8.0877    1.7152   67.5923 H       1  ZINC001067560454    0.0900
     38 H38        -8.8976    0.3135   66.7674 H       1  ZINC001067560454    0.0700
     39 H39        -6.0869    0.3090   67.4309 H       1  ZINC001067560454    0.0700
     40 H40        -6.7528   -0.5909   66.0000 H       1  ZINC001067560454    0.0800
     41 H41        -5.8053    1.2746   64.7237 H       1  ZINC001067560454    0.0800
     42 H42        -5.9089    2.3924   66.1523 H       1  ZINC001067560454    0.0900
     43 H43       -10.6813    1.8700   61.5628 H       1  ZINC001067560454    0.0800
     44 H44        -9.2533    2.4096   60.6460 H       1  ZINC001067560454    0.0800
     45 H45       -10.8657   -0.1274   60.1138 H       1  ZINC001067560454    0.0700
     46 H46       -10.9160    1.3619   59.1407 H       1  ZINC001067560454    0.0800
     47 H47        -7.8615    2.0061   54.2859 H       1  ZINC001067560454    0.2300
     48 H48        -8.4447   -0.7631   52.6165 H       1  ZINC001067560454    0.0800
     49 H49       -10.2082   -0.6185   52.8103 H       1  ZINC001067560454    0.0900
     50 H50        -9.2416    0.8089   52.3672 H       1  ZINC001067560454    0.0900
     51 H51       -11.2389   -2.9480   56.8235 H       1  ZINC001067560454    0.2100
@<TRIPOS>BOND
     1     1     2    1
     2     1    28    1
     3     1    29    1
     4     1    30    1
     5     2     3    1
     6     2    17    1
     7     2     4    1
     8     4     5    1
     9     4    31    1
    10     4    32    1
    11     5     6    1
    12     5     7    1
    13     5    15    1
    14     7     8   am
    15     7    33    1
    16     8     9    2
    17     8    10    1
    18    10    14    1
    19    10    11    1
    20    10    12    1
    21    11    34    1
    22    11    35    1
    23    11    36    1
    24    12    13    1
    25    12    37    1
    26    12    38    1
    27    13    14    1
    28    13    39    1
    29    13    40    1
    30    14    41    1
    31    14    42    1
    32    15    16    1
    33    15    43    1
    34    15    44    1
    35    16    17    1
    36    16    45    1
    37    16    46    1
    38    17    18    1
    39    18    27   ar
    40    18    19   ar
    41    19    24   ar
    42    19    20    1
    43    20    21    2
    44    21    22    1
    45    21    47    1
    46    22    23    1
    47    22    24    1
    48    23    48    1
    49    23    49    1
    50    23    50    1
    51    24    25   ar
    52    25    26   ar
    53    26    27   ar
    54    26    51    1
@<TRIPOS>SUBSTRUCTURE
     1 ZINC001067560454        1 TEMP              0 ****  ****    0 ROOT


##########                                Name:    ZINC000119180466
##########                DOCK_Rotatable_Bonds:                  10
##########                         Heavy_Atoms:                  23
##########                    Molecular_Weight:             350.405
##########                DOCK_Rotatable_Bonds:                  10
##########                       Formal_Charge:           0.0299997
##########                     HBond_Acceptors:                   8
##########                        HBond_Donors:                   3
##########                         Heavy_Atoms:                  23
##########                          Grid_Score:          -28.891333
##########                     Grid_vdw_energy:          -28.128147
##########                      Grid_es_energy:           -0.763186
##########           Internal_energy_repulsive:           11.680039

@<TRIPOS>MOLECULE
ZINC000119180466
 44 44 1 0 0
SMALL
USER_CHARGES


@<TRIPOS>ATOM
      1 C1         -1.6006    1.5171   45.4493 C.3     1  ZINC000119180466   -0.1300
      2 S2         -2.4312    1.3829   47.0564 S.3     1  ZINC000119180466   -0.2200
      3 C3         -1.0643    1.0236   48.1935 C.3     1  ZINC000119180466   -0.0700
      4 H4         -0.1931    1.6154   47.9128 H       1  ZINC000119180466    0.1100
      5 C5         -0.7160   -0.4643   48.1183 C.3     1  ZINC000119180466    0.0800
      6 O6         -1.7867   -1.1730   47.4911 O.3     1  ZINC000119180466   -0.5600
      7 C7         -1.4827    1.3779   49.6219 C.3     1  ZINC000119180466    0.1900
      8 H8         -1.8458    0.4827   50.1268 H       1  ZINC000119180466    0.1000
      9 C9         -0.2790    1.9391   50.3815 C.3     1  ZINC000119180466   -0.1700
     10 N10        -2.5479    2.3829   49.5836 N.am    1  ZINC000119180466   -0.7200
     11 C11        -3.7502    2.1116   50.1289 C.2     1  ZINC000119180466    0.7100
     12 O12        -3.9503    1.0333   50.6540 O.2     1  ZINC000119180466   -0.6000
     13 N13        -4.7308    3.0357   50.0924 N.am    1  ZINC000119180466   -0.7400
     14 C14        -6.0371    2.7414   50.6866 C.3     1  ZINC000119180466    0.2000
     15 H15        -6.3507    1.7387   50.3964 H       1  ZINC000119180466    0.1000
     16 C16        -5.9337    2.8222   52.2110 C.3     1  ZINC000119180466   -0.1600
     17 C17        -7.0489    3.7456   50.1978 C.ar    1  ZINC000119180466   -0.0600
     18 C18        -8.1539    3.3217   49.4835 C.ar    1  ZINC000119180466   -0.1100
     19 C19        -9.0820    4.2429   49.0350 C.ar    1  ZINC000119180466   -0.0600
     20 C20        -8.9052    5.5878   49.3013 C.ar    1  ZINC000119180466   -0.1800
     21 C21        -9.9166    6.5920   48.8119 C.3     1  ZINC000119180466    0.5100
     22 F22       -10.6323    7.1016   49.9007 F       1  ZINC000119180466   -0.1800
     23 F23        -9.2568    7.6375   48.1572 F       1  ZINC000119180466   -0.1800
     24 F24       -10.8000    5.9693   47.9236 F       1  ZINC000119180466   -0.1800
     25 C25        -7.8009    6.0115   50.0166 C.ar    1  ZINC000119180466   -0.0600
     26 C26        -6.8748    5.0900   50.4684 C.ar    1  ZINC000119180466   -0.1100
     27 H27        -1.1004    0.5764   45.2192 H       1  ZINC000119180466    0.0800
     28 H28        -2.3376    1.7353   44.6765 H       1  ZINC000119180466    0.1000
     29 H29        -0.8646    2.3203   45.4867 H       1  ZINC000119180466    0.0800
     30 H30         0.1963   -0.5948   47.5364 H       1  ZINC000119180466    0.0500
     31 H31        -0.5635   -0.8531   49.1251 H       1  ZINC000119180466    0.0600
     32 H32        -1.6558   -2.1303   47.4534 H       1  ZINC000119180466    0.3800
     33 H33         0.0841    2.8344   49.8767 H       1  ZINC000119180466    0.0700
     34 H34        -0.5772    2.1915   51.3992 H       1  ZINC000119180466    0.0700
     35 H35         0.5135    1.1914   50.4100 H       1  ZINC000119180466    0.0700
     36 H36        -2.3879    3.2436   49.1660 H       1  ZINC000119180466    0.4100
     37 H37        -4.5715    3.8954   49.6725 H       1  ZINC000119180466    0.4000
     38 H38        -6.9056    2.6034   52.6532 H       1  ZINC000119180466    0.0700
     39 H39        -5.2018    2.0960   52.5645 H       1  ZINC000119180466    0.0700
     40 H40        -5.6200    3.8249   52.5012 H       1  ZINC000119180466    0.0600
     41 H41        -8.2920    2.2710   49.2756 H       1  ZINC000119180466    0.1300
     42 H42        -9.9450    3.9118   48.4764 H       1  ZINC000119180466    0.1400
     43 H43        -7.6629    7.0622   50.2248 H       1  ZINC000119180466    0.1400
     44 H44        -6.0119    5.4209   51.0273 H       1  ZINC000119180466    0.1400
@<TRIPOS>BOND
     1     1     2    1
     2     1    27    1
     3     1    28    1
     4     1    29    1
     5     2     3    1
     6     3     4    1
     7     3     5    1
     8     3     7    1
     9     5     6    1
    10     5    30    1
    11     5    31    1
    12     6    32    1
    13     7     8    1
    14     7     9    1
    15     7    10    1
    16     9    33    1
    17     9    34    1
    18     9    35    1
    19    10    11   am
    20    10    36    1
    21    11    12    2
    22    11    13   am
    23    13    14    1
    24    13    37    1
    25    14    15    1
    26    14    16    1
    27    14    17    1
    28    16    38    1
    29    16    39    1
    30    16    40    1
    31    17    26   ar
    32    17    18   ar
    33    18    19   ar
    34    18    41    1
    35    19    20   ar
    36    19    42    1
    37    20    21    1
    38    20    25   ar
    39    21    22    1
    40    21    23    1
    41    21    24    1
    42    25    26   ar
    43    25    43    1
    44    26    44    1
@<TRIPOS>SUBSTRUCTURE
     1 ZINC000119180466        1 TEMP              0 ****  ****    0 ROOT


##########                                Name:    ZINC000430767928
##########                DOCK_Rotatable_Bonds:                   4
##########                         Heavy_Atoms:                  25
##########                    Molecular_Weight:             358.505
##########                DOCK_Rotatable_Bonds:                   4
##########                       Formal_Charge:          -0.0100002
##########                     HBond_Acceptors:                   5
##########                        HBond_Donors:                   0
##########                         Heavy_Atoms:                  25
##########                          Grid_Score:          -28.886806
##########                     Grid_vdw_energy:          -28.410328
##########                      Grid_es_energy:           -0.476478
##########           Internal_energy_repulsive:           22.130260

@<TRIPOS>MOLECULE
ZINC000430767928
 51 55 1 0 0
SMALL
USER_CHARGES


@<TRIPOS>ATOM
      1 O1        -10.5782   -3.0133   56.1167 O.2     1  ZINC000430767928   -0.4600
      2 C2        -11.2116   -2.8258   57.1333 C.2     1  ZINC000430767928    0.5300
      3 C3        -12.5862   -3.3534   57.4669 C.3     1  ZINC000430767928    0.0400
      4 H4        -12.5908   -4.4251   57.6658 H       1  ZINC000430767928    0.1400
      5 C5        -13.6257   -2.9371   56.4059 C.3     1  ZINC000430767928   -0.1100
      6 C6        -14.9222   -2.8054   57.2455 C.3     1  ZINC000430767928   -0.1000
      7 H7        -15.5125   -3.7191   57.1773 H       1  ZINC000430767928    0.1000
      8 C8        -15.7441   -1.6054   56.7705 C.3     1  ZINC000430767928   -0.0800
      9 C9        -16.1152   -1.7920   55.2980 C.3     1  ZINC000430767928   -0.1100
     10 C10       -16.9371   -0.5920   54.8231 C.3     1  ZINC000430767928   -0.1200
     11 C11       -18.2128   -0.4839   55.6608 C.3     1  ZINC000430767928   -0.1200
     12 C12       -17.8416   -0.2973   57.1333 C.3     1  ZINC000430767928   -0.1200
     13 C13       -17.0198   -1.4974   57.6082 C.3     1  ZINC000430767928   -0.1200
     14 C14       -14.4359   -2.5867   58.6946 C.3     1  ZINC000430767928    0.1600
     15 N15       -12.9649   -2.5349   58.6529 N.am    1  ZINC000430767928   -0.6400
     16 C16       -11.8153   -2.0589   59.1416 C.2     1  ZINC000430767928    0.7400
     17 O17       -11.6790   -1.6258   60.2690 O.2     1  ZINC000430767928   -0.5100
     18 N18       -10.8354   -2.1044   58.2126 N.am    1  ZINC000430767928   -0.5800
     19 C19        -9.5328   -1.4487   58.3525 C.3     1  ZINC000430767928    0.2600
     20 H20        -9.5358   -0.8213   59.2439 H       1  ZINC000430767928    0.1200
     21 C21        -8.4550   -2.4943   58.4778 C.2     1  ZINC000430767928   -0.2100
     22 C22        -8.6449   -3.8106   58.3752 C.2     1  ZINC000430767928   -0.1200
     23 C23        -7.5029   -4.5783   58.5256 C.2     1  ZINC000430767928   -0.1400
     24 C24        -6.3855   -3.8853   58.7506 C.2     1  ZINC000430767928   -0.2300
     25 S25        -6.7527   -2.1654   58.7743 S.3     1  ZINC000430767928    0.1700
     26 C26        -9.2628   -0.5829   57.1203 C.3     1  ZINC000430767928   -0.1700
     27 C27        -9.4982    0.9234   57.2499 C.3     1  ZINC000430767928   -0.1700
     28 C28        -8.0714    0.3755   57.1777 C.3     1  ZINC000430767928   -0.1600
     29 H29       -13.3576   -1.9820   55.9545 H       1  ZINC000430767928    0.0800
     30 H30       -13.7337   -3.7101   55.6450 H       1  ZINC000430767928    0.1000
     31 H31       -15.1564   -0.6945   56.8845 H       1  ZINC000430767928    0.0700
     32 H32       -15.2063   -1.8690   54.7012 H       1  ZINC000430767928    0.0600
     33 H33       -16.7029   -2.7029   55.1841 H       1  ZINC000430767928    0.0700
     34 H34       -16.3493    0.3189   54.9371 H       1  ZINC000430767928    0.0600
     35 H35       -17.2014   -0.7250   53.7741 H       1  ZINC000430767928    0.0600
     36 H36       -18.7982    0.3709   55.3225 H       1  ZINC000430767928    0.0600
     37 H37       -18.8005   -1.3948   55.5469 H       1  ZINC000430767928    0.0600
     38 H38       -17.2539    0.6135   57.2474 H       1  ZINC000430767928    0.0600
     39 H39       -18.7505   -0.2204   57.7302 H       1  ZINC000430767928    0.0600
     40 H40       -17.6075   -2.4082   57.4943 H       1  ZINC000430767928    0.0700
     41 H41       -16.7554   -1.3643   58.6573 H       1  ZINC000430767928    0.0600
     42 H42       -14.8369   -1.6516   59.0857 H       1  ZINC000430767928    0.0900
     43 H43       -14.7499   -3.4198   59.3233 H       1  ZINC000430767928    0.0800
     44 H44        -9.6162   -4.2446   58.1889 H       1  ZINC000430767928    0.1400
     45 H45        -7.5157   -5.6565   58.4658 H       1  ZINC000430767928    0.1400
     46 H46        -5.4047   -4.3145   58.8928 H       1  ZINC000430767928    0.1600
     47 H47        -9.4893   -1.0473   56.1606 H       1  ZINC000430767928    0.1200
     48 H48        -9.8798    1.4502   56.3754 H       1  ZINC000430767928    0.1000
     49 H49        -9.8455    1.2974   58.2130 H       1  ZINC000430767928    0.1000
     50 H50        -7.4801    0.3891   58.0933 H       1  ZINC000430767928    0.1000
     51 H51        -7.5145    0.5419   56.2556 H       1  ZINC000430767928    0.1000
@<TRIPOS>BOND
     1     1     2    2
     2     2    18   am
     3     2     3    1
     4     3     4    1
     5     3    15    1
     6     3     5    1
     7     5     6    1
     8     5    29    1
     9     5    30    1
    10     6     7    1
    11     6     8    1
    12     6    14    1
    13     8    13    1
    14     8     9    1
    15     8    31    1
    16     9    10    1
    17     9    32    1
    18     9    33    1
    19    10    11    1
    20    10    34    1
    21    10    35    1
    22    11    12    1
    23    11    36    1
    24    11    37    1
    25    12    13    1
    26    12    38    1
    27    12    39    1
    28    13    40    1
    29    13    41    1
    30    14    15    1
    31    14    42    1
    32    14    43    1
    33    15    16   am
    34    16    17    2
    35    16    18   am
    36    18    19    1
    37    19    20    1
    38    19    21    1
    39    19    26    1
    40    21    25    1
    41    21    22    2
    42    22    23    1
    43    22    44    1
    44    23    24    2
    45    23    45    1
    46    24    25    1
    47    24    46    1
    48    26    28    1
    49    26    27    1
    50    26    47    1
    51    27    28    1
    52    27    48    1
    53    27    49    1
    54    28    50    1
    55    28    51    1
@<TRIPOS>SUBSTRUCTURE
     1 ZINC000430767928        1 TEMP              0 ****  ****    0 ROOT


##########                                Name:    ZINC000543429378
##########                DOCK_Rotatable_Bonds:                   6
##########                         Heavy_Atoms:                  29
##########                    Molecular_Weight:             406.408
##########                DOCK_Rotatable_Bonds:                   6
##########                       Formal_Charge:           0.0100003
##########                     HBond_Acceptors:                   9
##########                        HBond_Donors:                   1
##########                         Heavy_Atoms:                  29
##########                          Grid_Score:          -28.874561
##########                     Grid_vdw_energy:          -27.700542
##########                      Grid_es_energy:           -1.174019
##########           Internal_energy_repulsive:           32.362206

@<TRIPOS>MOLECULE
ZINC000543429378
 50 53 1 0 0
SMALL
USER_CHARGES


@<TRIPOS>ATOM
      1 O1         -6.7497   -1.0871   58.1180 O.2     1  ZINC000543429378   -0.5100
      2 C2         -7.8886   -1.0863   57.7012 C.2     1  ZINC000543429378    0.5200
      3 N3         -8.3215   -0.0731   56.9249 N.am    1  ZINC000543429378   -0.6600
      4 C4         -7.4585    0.9807   56.6046 C.ar    1  ZINC000543429378    0.1900
      5 C5         -6.7640    1.6408   57.6100 C.ar    1  ZINC000543429378   -0.1600
      6 C6         -5.9115    2.6811   57.2935 C.ar    1  ZINC000543429378   -0.0600
      7 C7         -5.7479    3.0676   55.9771 C.ar    1  ZINC000543429378   -0.2100
      8 C8         -6.4395    2.4114   54.9682 C.ar    1  ZINC000543429378    0.1300
      9 O9         -6.2777    2.7927   53.6739 O.3     1  ZINC000543429378   -0.3100
     10 C10        -4.9394    2.8453   53.1755 C.3     1  ZINC000543429378    0.6000
     11 F11        -4.9338    2.5086   51.8176 F       1  ZINC000543429378   -0.1600
     12 F12        -4.4320    4.1390   53.3373 F       1  ZINC000543429378   -0.1300
     13 F13        -4.1422    1.9398   53.8837 F       1  ZINC000543429378   -0.1600
     14 C14        -7.2911    1.3639   55.2811 C.ar    1  ZINC000543429378   -0.1300
     15 C15        -8.8181   -2.2213   58.0462 C.3     1  ZINC000543429378    0.0700
     16 H16        -8.2467   -3.1379   58.1918 H       1  ZINC000543429378    0.1200
     17 C17        -9.8565   -2.4197   56.9082 C.3     1  ZINC000543429378   -0.1200
     18 C18       -11.1305   -2.7560   57.6986 C.3     1  ZINC000543429378   -0.1000
     19 H19       -11.1208   -3.7927   58.0351 H       1  ZINC000543429378    0.0900
     20 C20       -12.4359   -2.4240   56.9960 C.3     1  ZINC000543429378   -0.1100
     21 C21       -13.5743   -2.7111   57.9879 C.3     1  ZINC000543429378   -0.1200
     22 C22       -13.4174   -1.8983   59.2697 C.3     1  ZINC000543429378   -0.1100
     23 C23       -12.0399   -2.1277   59.9136 C.3     1  ZINC000543429378   -0.0900
     24 C24       -10.9828   -1.7749   58.8932 C.3     1  ZINC000543429378    0.0700
     25 H25       -11.1606   -0.7641   58.5262 H       1  ZINC000543429378    0.0900
     26 N26        -9.5778   -1.8962   59.2817 N.3     1  ZINC000543429378   -0.4300
     27 C27        -9.1142   -0.7182   59.8413 C.ar    1  ZINC000543429378    0.5000
     28 N28        -9.6484    0.4328   59.4602 N.ar    1  ZINC000543429378   -0.5300
     29 C29        -9.2288    1.5765   59.9756 C.ar    1  ZINC000543429378    0.1800
     30 C30        -8.2184    1.5602   60.9243 C.ar    1  ZINC000543429378   -0.2500
     31 C31        -7.6820    0.3387   61.3001 C.ar    1  ZINC000543429378    0.1800
     32 N32        -8.1507   -0.7688   60.7493 N.ar    1  ZINC000543429378   -0.5300
     33 H33        -9.2312   -0.0745   56.5884 H       1  ZINC000543429378    0.4200
     34 H34        -6.8907    1.3411   58.6398 H       1  ZINC000543429378    0.1400
     35 H35        -5.3724    3.1933   58.0767 H       1  ZINC000543429378    0.1400
     36 H36        -5.0814    3.8815   55.7329 H       1  ZINC000543429378    0.1400
     37 H37        -7.8300    0.8521   54.4974 H       1  ZINC000543429378    0.1500
     38 H38        -9.9852   -1.5026   56.3335 H       1  ZINC000543429378    0.0800
     39 H39        -9.5705   -3.2477   56.2595 H       1  ZINC000543429378    0.0900
     40 H40       -12.4474   -1.3715   56.7128 H       1  ZINC000543429378    0.0700
     41 H41       -12.5496   -3.0487   56.1100 H       1  ZINC000543429378    0.0700
     42 H42       -14.5262   -2.4589   57.5206 H       1  ZINC000543429378    0.0600
     43 H43       -13.5710   -3.7723   58.2365 H       1  ZINC000543429378    0.0600
     44 H44       -13.5303   -0.8395   59.0366 H       1  ZINC000543429378    0.0600
     45 H45       -14.1944   -2.1917   59.9754 H       1  ZINC000543429378    0.0700
     46 H46       -11.9319   -1.4935   60.7936 H       1  ZINC000543429378    0.0700
     47 H47       -11.9321   -3.1752   60.1952 H       1  ZINC000543429378    0.0700
     48 H48        -9.6679    2.5116   59.6607 H       1  ZINC000543429378    0.1600
     49 H49        -7.8568    2.4795   61.3609 H       1  ZINC000543429378    0.1400
     50 H50        -6.8933    0.2915   62.0365 H       1  ZINC000543429378    0.1600
@<TRIPOS>BOND
     1     1     2    2
     2     2     3   am
     3     2    15    1
     4     3     4    1
     5     3    33    1
     6     4    14   ar
     7     4     5   ar
     8     5     6   ar
     9     5    34    1
    10     6     7   ar
    11     6    35    1
    12     7     8   ar
    13     7    36    1
    14     8     9    1
    15     8    14   ar
    16     9    10    1
    17    10    11    1
    18    10    12    1
    19    10    13    1
    20    14    37    1
    21    15    16    1
    22    15    26    1
    23    15    17    1
    24    17    18    1
    25    17    38    1
    26    17    39    1
    27    18    19    1
    28    18    24    1
    29    18    20    1
    30    20    21    1
    31    20    40    1
    32    20    41    1
    33    21    22    1
    34    21    42    1
    35    21    43    1
    36    22    23    1
    37    22    44    1
    38    22    45    1
    39    23    24    1
    40    23    46    1
    41    23    47    1
    42    24    25    1
    43    24    26    1
    44    26    27    1
    45    27    32   ar
    46    27    28   ar
    47    28    29   ar
    48    29    30   ar
    49    29    48    1
    50    30    31   ar
    51    30    49    1
    52    31    32   ar
    53    31    50    1
@<TRIPOS>SUBSTRUCTURE
     1 ZINC000543429378        1 TEMP              0 ****  ****    0 ROOT


##########                                Name:    ZINC000676204775
##########                DOCK_Rotatable_Bonds:                   4
##########                         Heavy_Atoms:                  25
##########                    Molecular_Weight:             359.452
##########                DOCK_Rotatable_Bonds:                   4
##########                       Formal_Charge:          0.00999978
##########                     HBond_Acceptors:                   8
##########                        HBond_Donors:                   2
##########                         Heavy_Atoms:                  25
##########                          Grid_Score:          -28.862011
##########                     Grid_vdw_energy:          -28.539513
##########                      Grid_es_energy:           -0.322498
##########           Internal_energy_repulsive:            7.214743

@<TRIPOS>MOLECULE
ZINC000676204775
 46 49 1 0 0
SMALL
USER_CHARGES


@<TRIPOS>ATOM
      1 C1         -4.4283    1.5904   50.8089 C.3     1  ZINC000676204775   -0.1600
      2 C2         -4.7898    2.4226   52.0409 C.3     1  ZINC000676204775    0.1600
      3 C3         -4.8659    3.9007   51.6533 C.3     1  ZINC000676204775   -0.1600
      4 N4         -6.0882    1.9865   52.5608 N.pl3   1  ZINC000676204775   -0.3900
      5 N5         -7.1551    1.5161   51.7883 N.2     1  ZINC000676204775   -0.2500
      6 C6         -8.1626    1.2112   52.5553 C.2     1  ZINC000676204775    0.0900
      7 C7         -7.7721    1.4856   53.9344 C.ar    1  ZINC000676204775   -0.2100
      8 C8         -8.4153    1.3608   55.1705 C.ar    1  ZINC000676204775    0.0800
      9 C9         -7.7566    1.7136   56.3128 C.ar    1  ZINC000676204775   -0.7200
     10 S10        -8.5653    1.5566   57.8704 S.o2    1  ZINC000676204775    2.6900
     11 O11        -7.9052    2.4495   58.7571 O.2     1  ZINC000676204775   -0.9300
     12 O12        -9.9602    1.6136   57.6058 O.2     1  ZINC000676204775   -0.9600
     13 N13        -8.2577    0.0288   58.4305 N.am    1  ZINC000676204775   -1.1100
     14 C14        -8.6837   -1.1365   57.6516 C.3     1  ZINC000676204775    0.2400
     15 H15        -8.5500   -0.9370   56.5884 H       1  ZINC000676204775    0.1000
     16 C16       -10.1594   -1.4399   57.9395 C.3     1  ZINC000676204775   -0.1200
     17 C17       -10.5404   -2.7868   57.3210 C.3     1  ZINC000676204775   -0.1200
     18 C18        -9.8900   -3.9247   58.1177 C.3     1  ZINC000676204775   -0.0400
     19 C19        -8.4208   -3.6153   58.2671 C.2     1  ZINC000676204775   -0.2300
     20 C20        -7.4233   -4.4494   58.6138 C.2     1  ZINC000676204775    0.0600
     21 N21        -6.2752   -3.7355   58.6167 N.pl3   1  ZINC000676204775   -0.4800
     22 N22        -6.5853   -2.4147   58.2586 N.2     1  ZINC000676204775   -0.2400
     23 C23        -7.8670   -2.3418   58.0502 C.2     1  ZINC000676204775    0.0500
     24 C24        -6.4545    2.1950   56.2591 C.ar    1  ZINC000676204775    0.0100
     25 C25        -5.8054    2.3257   55.0640 C.ar    1  ZINC000676204775   -0.1500
     26 C26        -6.4500    1.9686   53.8825 C.ar    1  ZINC000676204775    0.1700
     27 H27        -4.3740    0.5373   51.0849 H       1  ZINC000676204775    0.0600
     28 H28        -5.1909    1.7262   50.0421 H       1  ZINC000676204775    0.0700
     29 H29        -3.4622    1.9148   50.4220 H       1  ZINC000676204775    0.0800
     30 H30        -4.0271    2.2867   52.8076 H       1  ZINC000676204775    0.1000
     31 H31        -5.6286    4.0365   50.8865 H       1  ZINC000676204775    0.0700
     32 H32        -5.1235    4.4936   52.5309 H       1  ZINC000676204775    0.0600
     33 H33        -3.8999    4.2251   51.2664 H       1  ZINC000676204775    0.0800
     34 H34        -9.1168    0.8245   52.2290 H       1  ZINC000676204775    0.2000
     35 H35        -9.4275    0.9877   55.2206 H       1  ZINC000676204775    0.1500
     36 H36        -7.7953   -0.0945   59.2743 H       1  ZINC000676204775    0.4200
     37 H37       -10.3180   -1.4780   59.0172 H       1  ZINC000676204775    0.0800
     38 H38       -10.7814   -0.6548   57.5099 H       1  ZINC000676204775    0.0800
     39 H39       -11.6241   -2.9022   57.3430 H       1  ZINC000676204775    0.0700
     40 H40       -10.1935   -2.8227   56.2883 H       1  ZINC000676204775    0.0700
     41 H41       -10.3527   -3.9959   59.1019 H       1  ZINC000676204775    0.0700
     42 H42       -10.0149   -4.8662   57.5829 H       1  ZINC000676204775    0.0700
     43 H43        -7.5220   -5.4992   58.8474 H       1  ZINC000676204775    0.1800
     44 H44        -5.3923   -4.0764   58.8291 H       1  ZINC000676204775    0.4400
     45 H45        -5.9493    2.4696   57.1734 H       1  ZINC000676204775    0.1500
     46 H46        -4.7932    2.7013   55.0362 H       1  ZINC000676204775    0.1300
@<TRIPOS>BOND
     1     1     2    1
     2     1    27    1
     3     1    28    1
     4     1    29    1
     5     2     3    1
     6     2     4    1
     7     2    30    1
     8     3    31    1
     9     3    32    1
    10     3    33    1
    11     4    26    1
    12     4     5    1
    13     5     6    2
    14     6     7    1
    15     6    34    1
    16     7    26   ar
    17     7     8   ar
    18     8     9   ar
    19     8    35    1
    20     9    10    1
    21     9    24   ar
    22    10    11    2
    23    10    12    2
    24    10    13   am
    25    13    14    1
    26    13    36    1
    27    14    15    1
    28    14    23    1
    29    14    16    1
    30    16    17    1
    31    16    37    1
    32    16    38    1
    33    17    18    1
    34    17    39    1
    35    17    40    1
    36    18    19    1
    37    18    41    1
    38    18    42    1
    39    19    23    1
    40    19    20    2
    41    20    21    1
    42    20    43    1
    43    21    22    1
    44    21    44    1
    45    22    23    2
    46    24    25   ar
    47    24    45    1
    48    25    26   ar
    49    25    46    1
@<TRIPOS>SUBSTRUCTURE
     1 ZINC000676204775        1 TEMP              0 ****  ****    0 ROOT


##########                                Name:    ZINC000790735374
##########                DOCK_Rotatable_Bonds:                   5
##########                         Heavy_Atoms:                  25
##########                    Molecular_Weight:             353.445
##########                DOCK_Rotatable_Bonds:                   5
##########                       Formal_Charge:                   0
##########                     HBond_Acceptors:                   6
##########                        HBond_Donors:                   1
##########                         Heavy_Atoms:                  25
##########                          Grid_Score:          -28.859776
##########                     Grid_vdw_energy:          -28.029591
##########                      Grid_es_energy:           -0.830184
##########           Internal_energy_repulsive:            8.741870

@<TRIPOS>MOLECULE
ZINC000790735374
 44 47 1 0 0
SMALL
USER_CHARGES


@<TRIPOS>ATOM
      1 O1         -6.4397    4.2097   49.7376 O.2     1  ZINC000790735374   -0.5100
      2 C2         -5.8382    3.6981   50.6581 C.2     1  ZINC000790735374    0.5000
      3 N3         -4.7191    2.9861   50.4190 N.am    1  ZINC000790735374   -0.7200
      4 C4         -4.2327    2.8249   49.0465 C.3     1  ZINC000790735374    0.1400
      5 C5         -2.7093    2.6838   49.0585 C.3     1  ZINC000790735374   -0.0300
      6 H6         -2.2552    3.6725   48.9933 H       1  ZINC000790735374    0.1100
      7 S7         -2.1931    1.8876   50.6037 S.3     1  ZINC000790735374   -0.2400
      8 C8         -0.4702    1.4535   50.2069 C.3     1  ZINC000790735374   -0.0800
      9 C9         -0.4968    0.4458   49.0672 C.3     1  ZINC000790735374   -0.0800
     10 C10        -1.2956    0.9028   47.8799 C.ar    1  ZINC000790735374   -0.0700
     11 C11        -0.9752    0.2558   46.6817 C.ar    1  ZINC000790735374   -0.1200
     12 C12        -1.6285    0.5508   45.5083 C.ar    1  ZINC000790735374   -0.1100
     13 C13        -2.6279    1.5061   45.5070 C.ar    1  ZINC000790735374   -0.1200
     14 C14        -2.9440    2.1507   46.6811 C.ar    1  ZINC000790735374   -0.1100
     15 C15        -2.2756    1.8563   47.8739 C.ar    1  ZINC000790735374   -0.0800
     16 C16        -6.3385    3.8639   52.0700 C.3     1  ZINC000790735374    0.0300
     17 H17        -5.9685    4.7916   52.5064 H       1  ZINC000790735374    0.1500
     18 C18        -7.8839    3.8058   52.1204 C.3     1  ZINC000790735374   -0.1400
     19 C19        -8.1491    2.3434   52.4242 C.2     1  ZINC000790735374    0.1200
     20 C20        -9.4435    1.6495   52.2734 C.ar    1  ZINC000790735374   -0.1000
     21 C21       -10.6098    2.3713   51.9928 C.ar    1  ZINC000790735374   -0.0400
     22 C22       -11.7973    1.6730   51.8606 C.ar    1  ZINC000790735374   -0.1700
     23 C23       -11.7943    0.2979   52.0083 C.ar    1  ZINC000790735374    0.1200
     24 N24       -10.6796   -0.3565   52.2727 N.ar    1  ZINC000790735374   -0.4800
     25 C25        -9.5243    0.2616   52.4025 C.ar    1  ZINC000790735374    0.1400
     26 N26        -7.0486    1.8101   52.8373 N.2     1  ZINC000790735374   -0.2700
     27 O27        -5.9745    2.7298   52.8830 O.3     1  ZINC000790735374   -0.1600
     28 H28        -4.2358    2.5802   51.1556 H       1  ZINC000790735374    0.4100
     29 H29        -4.6769    1.9323   48.6061 H       1  ZINC000790735374    0.0800
     30 H30        -4.5121    3.6983   48.4572 H       1  ZINC000790735374    0.0900
     31 H31         0.0740    2.3461   49.8980 H       1  ZINC000790735374    0.0900
     32 H32         0.0098    1.0111   51.0799 H       1  ZINC000790735374    0.1100
     33 H33         0.5273    0.2552   48.7462 H       1  ZINC000790735374    0.0900
     34 H34        -0.9230   -0.4870   49.4363 H       1  ZINC000790735374    0.0900
     35 H35        -0.1964   -0.4926   46.6781 H       1  ZINC000790735374    0.1200
     36 H36        -1.3628    0.0403   44.5945 H       1  ZINC000790735374    0.1300
     37 H37        -3.1544    1.7441   44.5945 H       1  ZINC000790735374    0.1300
     38 H38        -3.7251    2.8965   46.6814 H       1  ZINC000790735374    0.1300
     39 H39        -8.2693    4.4425   52.9167 H       1  ZINC000790735374    0.1200
     40 H40        -8.3133    4.0851   51.1582 H       1  ZINC000790735374    0.1100
     41 H41       -10.5836    3.4453   51.8829 H       1  ZINC000790735374    0.1500
     42 H42       -12.7170    2.1965   51.6446 H       1  ZINC000790735374    0.1500
     43 H43       -12.7198   -0.2493   51.9060 H       1  ZINC000790735374    0.1600
     44 H44        -8.6330   -0.3087   52.6186 H       1  ZINC000790735374    0.1600
@<TRIPOS>BOND
     1     1     2    2
     2     2     3   am
     3     2    16    1
     4     3     4    1
     5     3    28    1
     6     4     5    1
     7     4    29    1
     8     4    30    1
     9     5     6    1
    10     5    15    1
    11     5     7    1
    12     7     8    1
    13     8     9    1
    14     8    31    1
    15     8    32    1
    16     9    10    1
    17     9    33    1
    18     9    34    1
    19    10    15   ar
    20    10    11   ar
    21    11    12   ar
    22    11    35    1
    23    12    13   ar
    24    12    36    1
    25    13    14   ar
    26    13    37    1
    27    14    15   ar
    28    14    38    1
    29    16    17    1
    30    16    27    1
    31    16    18    1
    32    18    19    1
    33    18    39    1
    34    18    40    1
    35    19    20    1
    36    19    26    2
    37    20    25   ar
    38    20    21   ar
    39    21    22   ar
    40    21    41    1
    41    22    23   ar
    42    22    42    1
    43    23    24   ar
    44    23    43    1
    45    24    25   ar
    46    25    44    1
    47    26    27    1
@<TRIPOS>SUBSTRUCTURE
     1 ZINC000790735374        1 TEMP              0 ****  ****    0 ROOT


##########                                Name:    ZINC001199210165
##########                DOCK_Rotatable_Bonds:                   5
##########                         Heavy_Atoms:                  23
##########                    Molecular_Weight:             375.225
##########                DOCK_Rotatable_Bonds:                   5
##########                       Formal_Charge:         -0.00999999
##########                     HBond_Acceptors:                   6
##########                        HBond_Donors:                   2
##########                         Heavy_Atoms:                  23
##########                          Grid_Score:          -28.859528
##########                     Grid_vdw_energy:          -26.739697
##########                      Grid_es_energy:           -2.119831
##########           Internal_energy_repulsive:            7.551491

@<TRIPOS>MOLECULE
ZINC001199210165
 38 40 1 0 0
SMALL
USER_CHARGES


@<TRIPOS>ATOM
      1 C1         -9.3509    1.9626   56.0019 C.3     1  ZINC001199210165   -0.1700
      2 C2         -7.8355    1.9715   56.2126 C.3     1  ZINC001199210165    0.0800
      3 C3         -7.4546    0.8870   57.2223 C.3     1  ZINC001199210165   -0.1500
      4 O4         -7.1802    1.7155   54.9687 O.3     1  ZINC001199210165   -0.3000
      5 C5         -5.9125    2.1799   54.8333 C.ar    1  ZINC001199210165    0.3300
      6 C6         -5.2934    2.1331   53.5915 C.ar    1  ZINC001199210165   -0.1300
      7 C7         -3.9887    2.6148   53.4681 C.ar    1  ZINC001199210165   -0.0600
      8 C8         -3.2875    2.5861   52.1637 C.2     1  ZINC001199210165    0.5700
      9 O9         -2.3575    3.3405   51.9570 O.2     1  ZINC001199210165   -0.4900
     10 N10        -3.6811    1.7235   51.2059 N.am    1  ZINC001199210165   -0.6600
     11 C11        -3.0193    1.6964   49.9746 C.ar    1  ZINC001199210165    0.2000
     12 C12        -1.6885    1.2804   49.9128 C.ar    1  ZINC001199210165   -0.1500
     13 C13        -1.0272    1.2472   48.7210 C.ar    1  ZINC001199210165   -0.0200
     14 C14        -1.6853    1.6326   47.5476 C.ar    1  ZINC001199210165   -0.1700
     15 C15        -1.2875    1.7155   46.1452 C.2     1  ZINC001199210165    0.0900
     16 Br16        0.4120    1.2772   45.4412 Br      1  ZINC001199210165    0.0600
     17 N17        -2.3126    2.1448   45.4653 N.2     1  ZINC001199210165   -0.2100
     18 N18        -3.3982    2.3638   46.3195 N.pl3   1  ZINC001199210165   -0.4900
     19 C19        -3.0286    2.0535   47.6027 C.ar    1  ZINC001199210165    0.1500
     20 C20        -3.6901    2.0765   48.8266 C.ar    1  ZINC001199210165   -0.1700
     21 C21        -3.3614    3.1259   54.6100 C.ar    1  ZINC001199210165   -0.1900
     22 C22        -4.0488    3.1354   55.8067 C.ar    1  ZINC001199210165    0.1400
     23 N23        -5.2829    2.6767   55.8844 N.ar    1  ZINC001199210165   -0.5200
     24 H24        -9.6593    0.9884   55.6225 H       1  ZINC001199210165    0.0600
     25 H25        -9.8508    2.1579   56.9506 H       1  ZINC001199210165    0.0700
     26 H26        -9.6223    2.7351   55.2825 H       1  ZINC001199210165    0.0600
     27 H27        -7.5271    2.9456   56.5919 H       1  ZINC001199210165    0.0900
     28 H28        -7.7630   -0.0872   56.8430 H       1  ZINC001199210165    0.0700
     29 H29        -6.3750    0.8934   57.3725 H       1  ZINC001199210165    0.0600
     30 H30        -7.9545    1.0822   58.1711 H       1  ZINC001199210165    0.0800
     31 H31        -5.8128    1.7301   52.7345 H       1  ZINC001199210165    0.1600
     32 H32        -4.4235    1.1213   51.3708 H       1  ZINC001199210165    0.4100
     33 H33        -1.1779    0.9827   50.8168 H       1  ZINC001199210165    0.1500
     34 H34         0.0027    0.9242   48.6825 H       1  ZINC001199210165    0.1400
     35 H35        -4.2726    2.6836   46.0475 H       1  ZINC001199210165    0.4500
     36 H36        -4.7214    2.3926   48.8801 H       1  ZINC001199210165    0.1400
     37 H37        -2.3526    3.5074   54.5555 H       1  ZINC001199210165    0.1400
     38 H38        -3.5705    3.5280   56.6918 H       1  ZINC001199210165    0.1700
@<TRIPOS>BOND
     1     1     2    1
     2     1    24    1
     3     1    25    1
     4     1    26    1
     5     2     3    1
     6     2     4    1
     7     2    27    1
     8     3    28    1
     9     3    29    1
    10     3    30    1
    11     4     5    1
    12     5    23   ar
    13     5     6   ar
    14     6     7   ar
    15     6    31    1
    16     7     8    1
    17     7    21   ar
    18     8     9    2
    19     8    10   am
    20    10    11    1
    21    10    32    1
    22    11    20   ar
    23    11    12   ar
    24    12    13   ar
    25    12    33    1
    26    13    14   ar
    27    13    34    1
    28    14    19   ar
    29    14    15    1
    30    15    16    1
    31    15    17    2
    32    17    18    1
    33    18    19    1
    34    18    35    1
    35    19    20   ar
    36    20    36    1
    37    21    22   ar
    38    21    37    1
    39    22    23   ar
    40    22    38    1
@<TRIPOS>SUBSTRUCTURE
     1 ZINC001199210165        1 TEMP              0 ****  ****    0 ROOT


##########                                Name:    ZINC000443394081
##########                DOCK_Rotatable_Bonds:                   8
##########                         Heavy_Atoms:                  27
##########                    Molecular_Weight:             389.878
##########                DOCK_Rotatable_Bonds:                   8
##########                       Formal_Charge:          -0.0300003
##########                     HBond_Acceptors:                   6
##########                        HBond_Donors:                   1
##########                         Heavy_Atoms:                  27
##########                          Grid_Score:          -28.852205
##########                     Grid_vdw_energy:          -28.265812
##########                      Grid_es_energy:           -0.586393
##########           Internal_energy_repulsive:           27.492884

@<TRIPOS>MOLECULE
ZINC000443394081
 51 53 1 0 0
SMALL
USER_CHARGES


@<TRIPOS>ATOM
      1 C1         -7.1224    2.5172   55.8851 C.3     1  ZINC000443394081    0.0200
      2 O2         -6.9044    1.1827   55.4227 O.3     1  ZINC000443394081   -0.3000
      3 C3         -7.9980    0.4832   55.0176 C.ar    1  ZINC000443394081    0.1000
      4 C4         -8.6463   -0.3575   55.9010 C.ar    1  ZINC000443394081   -0.1200
      5 C5         -9.7703   -1.0745   55.4814 C.ar    1  ZINC000443394081   -0.1300
      6 C6        -10.4672   -1.9740   56.4216 C.2     1  ZINC000443394081    0.5700
      7 O7        -10.0931   -3.1233   56.5539 O.2     1  ZINC000443394081   -0.4900
      8 N8        -11.5181   -1.5214   57.1337 N.am    1  ZINC000443394081   -0.6100
      9 C9        -12.0743   -0.1575   57.0719 C.3     1  ZINC000443394081    0.0900
     10 C10       -13.5447   -0.3075   57.5360 C.3     1  ZINC000443394081   -0.1300
     11 C11       -13.4132   -1.3857   58.6438 C.3     1  ZINC000443394081   -0.1000
     12 H12       -13.1120   -0.9333   59.5886 H       1  ZINC000443394081    0.0900
     13 C13       -14.7252   -2.1554   58.8085 C.3     1  ZINC000443394081   -0.1500
     14 C14       -12.3038   -2.3078   58.0960 C.3     1  ZINC000443394081    0.1400
     15 H15       -11.6596   -2.6375   58.9111 H       1  ZINC000443394081    0.0800
     16 C16       -12.9295   -3.5206   57.4043 C.3     1  ZINC000443394081    0.0600
     17 O17       -13.5341   -3.1094   56.1765 O.3     1  ZINC000443394081   -0.5400
     18 C18       -10.2330   -0.9377   54.1708 C.ar    1  ZINC000443394081   -0.1000
     19 C19        -9.5812   -0.0973   53.2940 C.ar    1  ZINC000443394081   -0.1800
     20 C20        -8.4685    0.6191   53.7119 C.ar    1  ZINC000443394081    0.1300
     21 O21        -7.8297    1.4458   52.8444 O.3     1  ZINC000443394081   -0.3000
     22 C22        -7.5828    0.9415   51.5303 C.3     1  ZINC000443394081    0.1000
     23 C23        -6.5037    1.7619   50.8720 C.ar    1  ZINC000443394081   -0.0800
     24 C24        -5.2066    1.2873   50.8244 C.ar    1  ZINC000443394081   -0.0800
     25 C25        -4.2164    2.0400   50.2206 C.ar    1  ZINC000443394081   -0.1100
     26 C26        -4.5230    3.2677   49.6644 C.ar    1  ZINC000443394081   -0.1000
     27 C27        -5.8201    3.7435   49.7114 C.ar    1  ZINC000443394081   -0.1100
     28 C28        -6.8124    2.9881   50.3099 C.ar    1  ZINC000443394081   -0.0300
     29 Cl29       -8.4415    3.5849   50.3692 Cl      1  ZINC000443394081   -0.0700
     30 H30        -6.1704    2.9606   56.1767 H       1  ZINC000443394081    0.1000
     31 H31        -7.5698    3.1096   55.0870 H       1  ZINC000443394081    0.0600
     32 H32        -7.7932    2.4991   56.7440 H       1  ZINC000443394081    0.0600
     33 H33        -8.2853   -0.4609   56.9135 H       1  ZINC000443394081    0.1500
     34 H34       -11.5299    0.5050   57.7448 H       1  ZINC000443394081    0.0700
     35 H35       -12.0356    0.2221   56.0509 H       1  ZINC000443394081    0.0800
     36 H36       -13.9226    0.6293   57.9455 H       1  ZINC000443394081    0.0900
     37 H37       -14.1775   -0.6595   56.7213 H       1  ZINC000443394081    0.0800
     38 H38       -14.9928   -2.6242   57.8617 H       1  ZINC000443394081    0.0600
     39 H39       -14.6026   -2.9234   59.5724 H       1  ZINC000443394081    0.0600
     40 H40       -15.5151   -1.4670   59.1091 H       1  ZINC000443394081    0.0600
     41 H41       -12.1561   -4.2606   57.1986 H       1  ZINC000443394081    0.0600
     42 H42       -13.6875   -3.9583   58.0539 H       1  ZINC000443394081    0.0400
     43 H43       -14.2311   -2.4477   56.2835 H       1  ZINC000443394081    0.3700
     44 H44       -11.1013   -1.4906   53.8442 H       1  ZINC000443394081    0.1400
     45 H45        -9.9398    0.0072   52.2807 H       1  ZINC000443394081    0.1400
     46 H46        -7.2606   -0.0979   51.5946 H       1  ZINC000443394081    0.0800
     47 H47        -8.4969    1.0027   50.9399 H       1  ZINC000443394081    0.0800
     48 H48        -4.9663    0.3284   51.2594 H       1  ZINC000443394081    0.1400
     49 H49        -3.2029    1.6686   50.1837 H       1  ZINC000443394081    0.1300
     50 H50        -3.7490    3.8555   49.1935 H       1  ZINC000443394081    0.1300
     51 H51        -6.0596    4.7028   49.2767 H       1  ZINC000443394081    0.1400
@<TRIPOS>BOND
     1     1     2    1
     2     1    30    1
     3     1    31    1
     4     1    32    1
     5     2     3    1
     6     3    20   ar
     7     3     4   ar
     8     4     5   ar
     9     4    33    1
    10     5     6    1
    11     5    18   ar
    12     6     7    2
    13     6     8   am
    14     8    14    1
    15     8     9    1
    16     9    10    1
    17     9    34    1
    18     9    35    1
    19    10    11    1
    20    10    36    1
    21    10    37    1
    22    11    12    1
    23    11    13    1
    24    11    14    1
    25    13    38    1
    26    13    39    1
    27    13    40    1
    28    14    15    1
    29    14    16    1
    30    16    17    1
    31    16    41    1
    32    16    42    1
    33    17    43    1
    34    18    19   ar
    35    18    44    1
    36    19    20   ar
    37    19    45    1
    38    20    21    1
    39    21    22    1
    40    22    23    1
    41    22    46    1
    42    22    47    1
    43    23    28   ar
    44    23    24   ar
    45    24    25   ar
    46    24    48    1
    47    25    26   ar
    48    25    49    1
    49    26    27   ar
    50    26    50    1
    51    27    28   ar
    52    27    51    1
    53    28    29    1
@<TRIPOS>SUBSTRUCTURE
     1 ZINC000443394081        1 TEMP              0 ****  ****    0 ROOT


##########                                Name:    ZINC000971513996
##########                DOCK_Rotatable_Bonds:                   6
##########                         Heavy_Atoms:                  27
##########                    Molecular_Weight:             369.464
##########                DOCK_Rotatable_Bonds:                   6
##########                       Formal_Charge:          -0.0300002
##########                     HBond_Acceptors:                   6
##########                        HBond_Donors:                   1
##########                         Heavy_Atoms:                  27
##########                          Grid_Score:          -28.805557
##########                     Grid_vdw_energy:          -28.656219
##########                      Grid_es_energy:           -0.149337
##########           Internal_energy_repulsive:           16.384733

@<TRIPOS>MOLECULE
ZINC000971513996
 54 57 1 0 0
SMALL
USER_CHARGES


@<TRIPOS>ATOM
      1 C1         -9.4492    0.1464   63.9408 C.3     1  ZINC000971513996   -0.1600
      2 C2         -9.2792   -0.1610   62.4517 C.3     1  ZINC000971513996   -0.1400
      3 C3        -10.0176    0.8941   61.6256 C.3     1  ZINC000971513996    0.0800
      4 H4        -11.0232    1.0288   62.0237 H       1  ZINC000971513996    0.0800
      5 O5         -9.3088    2.1332   61.6924 O.3     1  ZINC000971513996   -0.3600
      6 C6        -10.0233    3.1761   62.3587 C.3     1  ZINC000971513996    0.0200
      7 C7        -10.1018    0.4403   60.1910 C.2     1  ZINC000971513996    0.5400
      8 O8        -11.1457    0.0052   59.7530 O.2     1  ZINC000971513996   -0.5100
      9 N9         -9.0172    0.5181   59.3948 N.am    1  ZINC000971513996   -0.6400
     10 C10        -7.6207    0.9658   59.5312 C.3     1  ZINC000971513996    0.1000
     11 C11        -7.2545   -0.0545   58.4362 C.3     1  ZINC000971513996   -0.1200
     12 H12        -6.4973    0.2810   57.7275 H       1  ZINC000971513996    0.1100
     13 C13        -6.9752   -1.4366   59.0317 C.3     1  ZINC000971513996   -0.1200
     14 C14        -7.5252   -2.5118   58.0899 C.3     1  ZINC000971513996    0.1100
     15 N15        -8.9620   -2.2806   57.9187 N.am    1  ZINC000971513996   -0.6000
     16 C16        -9.8368   -3.2634   58.2112 C.2     1  ZINC000971513996    0.5900
     17 O17        -9.4325   -4.3370   58.6156 O.2     1  ZINC000971513996   -0.5200
     18 C18       -11.2800   -3.0377   58.0416 C.2     1  ZINC000971513996    0.0200
     19 C19       -11.9670   -3.1741   56.8774 C.2     1  ZINC000971513996   -0.1000
     20 C20       -13.3243   -2.8676   57.1392 C.ar    1  ZINC000971513996   -0.1100
     21 C21       -14.4749   -2.8370   56.3412 C.ar    1  ZINC000971513996   -0.0600
     22 C22       -15.6750   -2.4939   56.8931 C.ar    1  ZINC000971513996   -0.1200
     23 C23       -16.9110   -2.4620   56.0316 C.3     1  ZINC000971513996   -0.1100
     24 C24       -15.7679   -2.1744   58.2416 C.ar    1  ZINC000971513996   -0.0800
     25 C25       -14.6511   -2.1972   59.0470 C.ar    1  ZINC000971513996   -0.1300
     26 C26       -13.4157   -2.5434   58.5073 C.ar    1  ZINC000971513996    0.1100
     27 N27       -12.1544   -2.6592   59.0420 N.pl3   1  ZINC000971513996   -0.5800
     28 C28        -9.4526   -0.9968   57.4352 C.3     1  ZINC000971513996    0.0700
     29 C29        -8.6930    0.1896   58.0047 C.3     1  ZINC000971513996    0.1300
     30 H30        -8.7815    1.0626   57.3581 H       1  ZINC000971513996    0.1100
     31 H31        -9.0129   -0.6599   64.5304 H       1  ZINC000971513996    0.0600
     32 H32        -8.9457    1.0835   64.1782 H       1  ZINC000971513996    0.0600
     33 H33       -10.5102    0.2345   64.1748 H       1  ZINC000971513996    0.0600
     34 H34        -8.2195   -0.1462   62.1964 H       1  ZINC000971513996    0.0800
     35 H35        -9.6915   -1.1464   62.2347 H       1  ZINC000971513996    0.0800
     36 H36       -10.9098    3.4362   61.7802 H       1  ZINC000971513996    0.0400
     37 H37       -10.3231    2.8355   63.3497 H       1  ZINC000971513996    0.0500
     38 H38        -9.3818    4.0522   62.4541 H       1  ZINC000971513996    0.0900
     39 H39        -7.4644    2.0017   59.2304 H       1  ZINC000971513996    0.0900
     40 H40        -7.1833    0.7369   60.5030 H       1  ZINC000971513996    0.0800
     41 H41        -5.9002   -1.5716   59.1502 H       1  ZINC000971513996    0.0900
     42 H42        -7.4628   -1.5198   60.0032 H       1  ZINC000971513996    0.0700
     43 H43        -7.0246   -2.4452   57.1239 H       1  ZINC000971513996    0.0800
     44 H44        -7.3605   -3.4986   58.5225 H       1  ZINC000971513996    0.1000
     45 H45       -11.5522   -3.4642   55.9233 H       1  ZINC000971513996    0.1500
     46 H46       -14.4126   -3.0839   55.2917 H       1  ZINC000971513996    0.1200
     47 H47       -17.3892   -3.4415   56.0457 H       1  ZINC000971513996    0.0700
     48 H48       -17.6037   -1.7140   56.4174 H       1  ZINC000971513996    0.0600
     49 H49       -16.6344   -2.2076   55.0084 H       1  ZINC000971513996    0.0600
     50 H50       -16.7253   -1.9051   58.6627 H       1  ZINC000971513996    0.1300
     51 H51       -14.7334   -1.9468   60.0943 H       1  ZINC000971513996    0.1200
     52 H52       -11.9172   -2.5003   59.9690 H       1  ZINC000971513996    0.4200
     53 H53        -9.3579   -0.9710   56.3496 H       1  ZINC000971513996    0.0800
     54 H54       -10.5069   -0.9031   57.6956 H       1  ZINC000971513996    0.1200
@<TRIPOS>BOND
     1     1     2    1
     2     1    31    1
     3     1    32    1
     4     1    33    1
     5     2     3    1
     6     2    34    1
     7     2    35    1
     8     3     4    1
     9     3     5    1
    10     3     7    1
    11     5     6    1
    12     6    36    1
    13     6    37    1
    14     6    38    1
    15     7     8    2
    16     7     9   am
    17     9    29    1
    18     9    10    1
    19    10    11    1
    20    10    39    1
    21    10    40    1
    22    11    12    1
    23    11    29    1
    24    11    13    1
    25    13    14    1
    26    13    41    1
    27    13    42    1
    28    14    15    1
    29    14    43    1
    30    14    44    1
    31    15    16   am
    32    15    28    1
    33    16    17    2
    34    16    18    1
    35    18    27    1
    36    18    19    2
    37    19    20    1
    38    19    45    1
    39    20    26   ar
    40    20    21   ar
    41    21    22   ar
    42    21    46    1
    43    22    23    1
    44    22    24   ar
    45    23    47    1
    46    23    48    1
    47    23    49    1
    48    24    25   ar
    49    24    50    1
    50    25    26   ar
    51    25    51    1
    52    26    27    1
    53    27    52    1
    54    28    29    1
    55    28    53    1
    56    28    54    1
    57    29    30    1
@<TRIPOS>SUBSTRUCTURE
     1 ZINC000971513996        1 TEMP              0 ****  ****    0 ROOT


##########                                Name:    ZINC000498646479
##########                DOCK_Rotatable_Bonds:                   7
##########                         Heavy_Atoms:                  29
##########                    Molecular_Weight:              407.58
##########                DOCK_Rotatable_Bonds:                   7
##########                       Formal_Charge:          -0.0199997
##########                     HBond_Acceptors:                   5
##########                        HBond_Donors:                   0
##########                         Heavy_Atoms:                  29
##########                          Grid_Score:          -28.788757
##########                     Grid_vdw_energy:          -28.197752
##########                      Grid_es_energy:           -0.591005
##########           Internal_energy_repulsive:           23.163074

@<TRIPOS>MOLECULE
ZINC000498646479
 58 61 1 0 0
SMALL
USER_CHARGES


@<TRIPOS>ATOM
      1 C1          0.8980    0.8971   48.2453 C.3     1  ZINC000498646479   -0.1500
      2 C2         -0.5410    0.4049   48.0778 C.3     1  ZINC000498646479   -0.0600
      3 C3         -1.4934    1.4534   48.5925 C.2     1  ZINC000498646479   -0.1700
      4 C4         -2.7296    1.6597   48.1358 C.2     1  ZINC000498646479   -0.1400
      5 C5         -3.4205    2.6814   48.7643 C.2     1  ZINC000498646479   -0.1300
      6 C6         -2.7454    3.3046   49.7313 C.2     1  ZINC000498646479   -0.1900
      7 C7         -3.2734    4.4447   50.5633 C.3     1  ZINC000498646479    0.1300
      8 N8         -4.4838    4.0124   51.2746 N.3     1  ZINC000498646479   -0.5300
      9 C9         -5.2091    5.1640   51.8277 C.3     1  ZINC000498646479    0.0400
     10 C10        -6.5497    4.6921   52.4006 C.3     1  ZINC000498646479    0.1200
     11 N11        -6.2924    3.6026   53.3546 N.am    1  ZINC000498646479   -0.6100
     12 C12        -6.8098    3.6360   54.5987 C.2     1  ZINC000498646479    0.5200
     13 O13        -7.4979    4.5730   54.9443 O.2     1  ZINC000498646479   -0.5400
     14 C14        -6.5335    2.5089   55.5601 C.3     1  ZINC000498646479   -0.1000
     15 H15        -6.5605    1.5598   55.0249 H       1  ZINC000498646479    0.0900
     16 C16        -5.1515    2.7013   56.1878 C.3     1  ZINC000498646479   -0.1500
     17 C17        -7.5970    2.5046   56.6600 C.3     1  ZINC000498646479   -0.0600
     18 C18        -7.6733    1.1329   57.2796 C.ar    1  ZINC000498646479   -0.1200
     19 C19        -8.4914    0.1364   56.7175 C.ar    1  ZINC000498646479   -0.0200
     20 C20        -9.2655    0.3632   55.5704 C.ar    1  ZINC000498646479   -0.1200
     21 C21       -10.0380   -0.6425   55.0733 C.ar    1  ZINC000498646479   -0.1000
     22 C22       -10.0714   -1.8934   55.6873 C.ar    1  ZINC000498646479   -0.1200
     23 C23        -9.3329   -2.1492   56.8024 C.ar    1  ZINC000498646479   -0.0900
     24 C24        -8.5242   -1.1372   57.3435 C.ar    1  ZINC000498646479   -0.1100
     25 C25        -7.7408   -1.3421   58.4905 C.ar    1  ZINC000498646479    0.1400
     26 N26        -6.9998   -0.3654   58.9594 N.ar    1  ZINC000498646479   -0.4800
     27 C27        -6.9468    0.8315   58.3916 C.ar    1  ZINC000498646479    0.0800
     28 C28        -5.4558    2.4756   52.9150 C.3     1  ZINC000498646479    0.1100
     29 C29        -4.1584    3.0349   52.3217 C.3     1  ZINC000498646479    0.0400
     30 S30        -1.1478    2.5868   49.8922 S.3     1  ZINC000498646479    0.1300
     31 H31         1.5870    0.1388   47.8730 H       1  ZINC000498646479    0.0600
     32 H32         1.0343    1.8200   47.6814 H       1  ZINC000498646479    0.0600
     33 H33         1.0981    1.0831   49.3005 H       1  ZINC000498646479    0.0600
     34 H34        -0.7409    0.2190   47.0226 H       1  ZINC000498646479    0.0800
     35 H35        -0.6772   -0.5179   48.6416 H       1  ZINC000498646479    0.0700
     36 H36        -3.1587    1.0744   47.3361 H       1  ZINC000498646479    0.1400
     37 H37        -4.4296    2.9535   48.4920 H       1  ZINC000498646479    0.1300
     38 H38        -2.5161    4.7482   51.2862 H       1  ZINC000498646479    0.0900
     39 H39        -3.5145    5.2868   49.9146 H       1  ZINC000498646479    0.0500
     40 H40        -4.6159    5.6213   52.6195 H       1  ZINC000498646479    0.0400
     41 H41        -5.3878    5.8944   51.0385 H       1  ZINC000498646479    0.1000
     42 H42        -7.0405    5.5194   52.9131 H       1  ZINC000498646479    0.1000
     43 H43        -7.1855    4.3290   51.5931 H       1  ZINC000498646479    0.0800
     44 H44        -4.9163    1.8440   56.8186 H       1  ZINC000498646479    0.0700
     45 H45        -4.4035    2.7886   55.3997 H       1  ZINC000498646479    0.0600
     46 H46        -5.1500    3.6084   56.7922 H       1  ZINC000498646479    0.0700
     47 H47        -7.3317    3.2345   57.4249 H       1  ZINC000498646479    0.0900
     48 H48        -8.5648    2.7636   56.2307 H       1  ZINC000498646479    0.0800
     49 H49        -9.2496    1.3279   55.0850 H       1  ZINC000498646479    0.1400
     50 H50       -10.6342   -0.4680   54.1898 H       1  ZINC000498646479    0.1300
     51 H51       -10.6934   -2.6724   55.2721 H       1  ZINC000498646479    0.1300
     52 H52        -9.3691   -3.1233   57.2671 H       1  ZINC000498646479    0.1300
     53 H53        -7.7482   -2.3016   58.9862 H       1  ZINC000498646479    0.1600
     54 H54        -6.3162    1.5918   58.8283 H       1  ZINC000498646479    0.1500
     55 H55        -5.2235    1.8377   53.7676 H       1  ZINC000498646479    0.0900
     56 H56        -5.9866    1.8996   52.1570 H       1  ZINC000498646479    0.0800
     57 H57        -3.5750    2.2211   51.8910 H       1  ZINC000498646479    0.0900
     58 H58        -3.5798    3.5219   53.1068 H       1  ZINC000498646479    0.0400
@<TRIPOS>BOND
     1     1     2    1
     2     1    31    1
     3     1    32    1
     4     1    33    1
     5     2     3    1
     6     2    34    1
     7     2    35    1
     8     3    30    1
     9     3     4    2
    10     4     5    1
    11     4    36    1
    12     5     6    2
    13     5    37    1
    14     6     7    1
    15     6    30    1
    16     7     8    1
    17     7    38    1
    18     7    39    1
    19     8    29    1
    20     8     9    1
    21     9    10    1
    22     9    40    1
    23     9    41    1
    24    10    11    1
    25    10    42    1
    26    10    43    1
    27    11    12   am
    28    11    28    1
    29    12    13    2
    30    12    14    1
    31    14    15    1
    32    14    16    1
    33    14    17    1
    34    16    44    1
    35    16    45    1
    36    16    46    1
    37    17    18    1
    38    17    47    1
    39    17    48    1
    40    18    27   ar
    41    18    19   ar
    42    19    24   ar
    43    19    20   ar
    44    20    21   ar
    45    20    49    1
    46    21    22   ar
    47    21    50    1
    48    22    23   ar
    49    22    51    1
    50    23    24   ar
    51    23    52    1
    52    24    25   ar
    53    25    26   ar
    54    25    53    1
    55    26    27   ar
    56    27    54    1
    57    28    29    1
    58    28    55    1
    59    28    56    1
    60    29    57    1
    61    29    58    1
@<TRIPOS>SUBSTRUCTURE
     1 ZINC000498646479        1 TEMP              0 ****  ****    0 ROOT


##########                                Name:    ZINC000455156110
##########                DOCK_Rotatable_Bonds:                   4
##########                         Heavy_Atoms:                  27
##########                    Molecular_Weight:             370.424
##########                DOCK_Rotatable_Bonds:                   4
##########                       Formal_Charge:           0.0100002
##########                     HBond_Acceptors:                   6
##########                        HBond_Donors:                   1
##########                         Heavy_Atoms:                  27
##########                          Grid_Score:          -28.787859
##########                     Grid_vdw_energy:          -28.751400
##########                      Grid_es_energy:           -0.036459
##########           Internal_energy_repulsive:           18.336195

@<TRIPOS>MOLECULE
ZINC000455156110
 50 53 1 0 0
SMALL
USER_CHARGES


@<TRIPOS>ATOM
      1 C1        -11.2757    2.6738   52.3963 C.3     1  ZINC000455156110    0.0300
      2 O2        -10.6013    3.7618   51.7610 O.3     1  ZINC000455156110   -0.3100
      3 C3         -9.3839    3.4990   51.2139 C.ar    1  ZINC000455156110    0.0900
      4 C4         -8.8022    2.2526   51.3845 C.ar    1  ZINC000455156110   -0.1600
      5 C5         -7.5656    1.9846   50.8291 C.ar    1  ZINC000455156110   -0.0800
      6 C6         -6.9339    0.6291   51.0157 C.3     1  ZINC000455156110   -0.1100
      7 C7         -6.9053    2.9631   50.0991 C.ar    1  ZINC000455156110    0.1500
      8 N8         -5.6517    2.6906   49.5353 N.am    1  ZINC000455156110   -0.6700
      9 C9         -4.6010    3.4884   49.8110 C.2     1  ZINC000455156110    0.7200
     10 O10        -4.7407    4.4445   50.5490 O.2     1  ZINC000455156110   -0.5500
     11 N11        -3.3952    3.2262   49.2687 N.am    1  ZINC000455156110   -0.5600
     12 C12        -3.1053    2.1103   48.3624 C.3     1  ZINC000455156110    0.1000
     13 C13        -1.6145    2.2459   48.0294 C.3     1  ZINC000455156110   -0.0200
     14 C14        -0.8542    1.0044   48.4901 C.3     1  ZINC000455156110   -0.1400
     15 C15        -1.3151   -0.2022   47.6665 C.3     1  ZINC000455156110    0.0600
     16 O16        -1.1174    0.0688   46.2773 O.3     1  ZINC000455156110   -0.3800
     17 C17        -1.8616    1.1860   45.7867 C.3     1  ZINC000455156110    0.0600
     18 C18        -1.4242    2.4528   46.5285 C.3     1  ZINC000455156110   -0.1400
     19 C19        -1.1527    3.4618   48.7925 C.ar    1  ZINC000455156110   -0.1300
     20 C20         0.0864    4.0665   48.8801 C.ar    1  ZINC000455156110   -0.0700
     21 C21         0.2563    5.1943   49.6618 C.ar    1  ZINC000455156110   -0.1400
     22 C22        -0.8180    5.7174   50.3573 C.ar    1  ZINC000455156110   -0.0900
     23 C23        -2.0565    5.1173   50.2741 C.ar    1  ZINC000455156110   -0.1300
     24 C24        -2.2377    3.9821   49.4828 C.ar    1  ZINC000455156110    0.1600
     25 C25        -7.4874    4.2121   49.9272 C.ar    1  ZINC000455156110   -0.1200
     26 C26        -8.7265    4.4781   50.4793 C.ar    1  ZINC000455156110    0.0900
     27 F27        -9.2940    5.6928   50.3124 F       1  ZINC000455156110   -0.1300
     28 H28       -12.2322    3.0187   52.7889 H       1  ZINC000455156110    0.1000
     29 H29       -11.4462    1.8786   51.6705 H       1  ZINC000455156110    0.0600
     30 H30       -10.6629    2.2941   53.2139 H       1  ZINC000455156110    0.0600
     31 H31        -9.3156    1.4905   51.9521 H       1  ZINC000455156110    0.1400
     32 H32        -7.2390   -0.0291   50.2022 H       1  ZINC000455156110    0.0800
     33 H33        -5.8486    0.7306   51.0134 H       1  ZINC000455156110    0.0600
     34 H34        -7.2572    0.2054   51.9665 H       1  ZINC000455156110    0.0800
     35 H35        -5.5401    1.9278   48.9466 H       1  ZINC000455156110    0.4100
     36 H36        -3.2975    1.1593   48.8591 H       1  ZINC000455156110    0.0800
     37 H37        -3.7048    2.1931   47.4559 H       1  ZINC000455156110    0.0900
     38 H38         0.2152    1.1575   48.3448 H       1  ZINC000455156110    0.0800
     39 H39        -1.0570    0.8239   49.5457 H       1  ZINC000455156110    0.0800
     40 H40        -0.7354   -1.0800   47.9518 H       1  ZINC000455156110    0.1000
     41 H41        -2.3727   -0.3877   47.8539 H       1  ZINC000455156110    0.0500
     42 H42        -1.6752    1.3067   44.7196 H       1  ZINC000455156110    0.1000
     43 H43        -2.9253    1.0159   45.9535 H       1  ZINC000455156110    0.0500
     44 H44        -2.0299    3.2963   46.1974 H       1  ZINC000455156110    0.0800
     45 H45        -0.3735    2.6532   46.3189 H       1  ZINC000455156110    0.0800
     46 H46         0.9250    3.6568   48.3368 H       1  ZINC000455156110    0.1300
     47 H47         1.2258    5.6651   49.7290 H       1  ZINC000455156110    0.1300
     48 H48        -0.6865    6.5985   50.9680 H       1  ZINC000455156110    0.1300
     49 H49        -2.8916    5.5304   50.8203 H       1  ZINC000455156110    0.1400
     50 H50        -6.9742    4.9739   49.3593 H       1  ZINC000455156110    0.1700
@<TRIPOS>BOND
     1     1     2    1
     2     1    28    1
     3     1    29    1
     4     1    30    1
     5     2     3    1
     6     3    26   ar
     7     3     4   ar
     8     4     5   ar
     9     4    31    1
    10     5     6    1
    11     5     7   ar
    12     6    32    1
    13     6    33    1
    14     6    34    1
    15     7     8    1
    16     7    25   ar
    17     8     9   am
    18     8    35    1
    19     9    10    2
    20     9    11   am
    21    11    24    1
    22    11    12    1
    23    12    13    1
    24    12    36    1
    25    12    37    1
    26    13    18    1
    27    13    14    1
    28    13    19    1
    29    14    15    1
    30    14    38    1
    31    14    39    1
    32    15    16    1
    33    15    40    1
    34    15    41    1
    35    16    17    1
    36    17    18    1
    37    17    42    1
    38    17    43    1
    39    18    44    1
    40    18    45    1
    41    19    24   ar
    42    19    20   ar
    43    20    21   ar
    44    20    46    1
    45    21    22   ar
    46    21    47    1
    47    22    23   ar
    48    22    48    1
    49    23    24   ar
    50    23    49    1
    51    25    26   ar
    52    25    50    1
    53    26    27    1
@<TRIPOS>SUBSTRUCTURE
     1 ZINC000455156110        1 TEMP              0 ****  ****    0 ROOT


##########                                Name:    ZINC000542980334
##########                DOCK_Rotatable_Bonds:                   6
##########                         Heavy_Atoms:                  27
##########                    Molecular_Weight:             404.795
##########                DOCK_Rotatable_Bonds:                   6
##########                       Formal_Charge:           0.0300001
##########                     HBond_Acceptors:                  10
##########                        HBond_Donors:                   1
##########                         Heavy_Atoms:                  27
##########                          Grid_Score:          -28.766666
##########                     Grid_vdw_energy:          -28.037941
##########                      Grid_es_energy:           -0.728725
##########           Internal_energy_repulsive:           10.513917

@<TRIPOS>MOLECULE
ZINC000542980334
 44 46 1 0 0
SMALL
USER_CHARGES


@<TRIPOS>ATOM
      1 O1        -12.6780   -0.2473   56.8983 O.2     1  ZINC000542980334   -0.5800
      2 C2        -11.6357   -0.0190   56.3153 C.2     1  ZINC000542980334    0.7100
      3 N3        -10.4609   -0.3780   56.8695 N.am    1  ZINC000542980334   -0.7400
      4 C4        -10.4391   -1.0380   58.1772 C.3     1  ZINC000542980334    0.1800
      5 C5         -9.2701   -1.9869   58.2418 C.ar    1  ZINC000542980334   -0.1400
      6 C6         -9.4423   -3.3209   57.9155 C.ar    1  ZINC000542980334    0.1300
      7 F7        -10.6584   -3.7732   57.5389 F       1  ZINC000542980334   -0.1200
      8 C8         -8.3671   -4.1917   57.9747 C.ar    1  ZINC000542980334   -0.1500
      9 C9         -7.1233   -3.7287   58.3593 C.ar    1  ZINC000542980334   -0.0700
     10 C10        -6.9513   -2.3963   58.6853 C.ar    1  ZINC000542980334   -0.1200
     11 C11        -8.0232   -1.5238   58.6216 C.ar    1  ZINC000542980334    0.0100
     12 Cl12       -7.8060    0.1492   59.0305 Cl      1  ZINC000542980334   -0.0400
     13 N13       -11.6557    0.5882   55.1122 N.am    1  ZINC000542980334   -0.6300
     14 C14       -12.9285    0.9855   54.4952 C.3     1  ZINC000542980334    0.1100
     15 C15       -12.9996    0.3913   53.0851 C.3     1  ZINC000542980334   -0.1300
     16 C16       -11.7591    0.8138   52.2947 C.3     1  ZINC000542980334   -0.1300
     17 C17       -10.5043    0.2731   52.9840 C.3     1  ZINC000542980334    0.1400
     18 H18       -10.5649   -0.8132   53.0499 H       1  ZINC000542980334    0.1100
     19 N19        -9.3197    0.6507   52.2092 N.pl3   1  ZINC000542980334   -0.3400
     20 C20        -8.3066   -0.1687   51.8578 C.2     1  ZINC000542980334    0.0600
     21 C21        -7.4121    0.5610   51.1516 C.2     1  ZINC000542980334   -0.2300
     22 C22        -7.8950    1.8710   51.0687 C.2     1  ZINC000542980334   -0.0200
     23 C23        -7.2157    3.0206   50.3701 C.3     1  ZINC000542980334    0.5600
     24 F24        -6.3143    3.6325   51.2478 F       1  ZINC000542980334   -0.1700
     25 F25        -6.5256    2.5437   49.2504 F       1  ZINC000542980334   -0.1700
     26 F26        -8.1764    3.9527   49.9636 F       1  ZINC000542980334   -0.1600
     27 N27        -9.0414    1.9245   51.6971 N.2     1  ZINC000542980334   -0.2300
     28 C28       -10.4047    0.8711   54.3956 C.3     1  ZINC000542980334    0.1300
     29 H29        -9.6296   -0.1993   56.4026 H       1  ZINC000542980334    0.4000
     30 H30       -10.3415   -0.2874   58.9615 H       1  ZINC000542980334    0.0900
     31 H31       -11.3662   -1.5934   58.3194 H       1  ZINC000542980334    0.0900
     32 H32        -8.5008   -5.2329   57.7205 H       1  ZINC000542980334    0.1500
     33 H33        -6.2851   -4.4082   58.4057 H       1  ZINC000542980334    0.1500
     34 H34        -5.9789   -2.0354   58.9862 H       1  ZINC000542980334    0.1500
     35 H35       -13.7580    0.6079   55.0932 H       1  ZINC000542980334    0.0800
     36 H36       -12.9828    2.0726   54.4368 H       1  ZINC000542980334    0.0800
     37 H37       -13.0367   -0.6962   53.1500 H       1  ZINC000542980334    0.0800
     38 H38       -13.8942    0.7568   52.5810 H       1  ZINC000542980334    0.0900
     39 H39       -11.8191    0.4126   51.2829 H       1  ZINC000542980334    0.0800
     40 H40       -11.7094    1.9018   52.2513 H       1  ZINC000542980334    0.0800
     41 H41        -8.2243   -1.2185   52.0975 H       1  ZINC000542980334    0.1900
     42 H42        -6.4882    0.1963   50.7275 H       1  ZINC000542980334    0.1600
     43 H43       -10.2525    1.9482   54.3263 H       1  ZINC000542980334    0.0800
     44 H44        -9.5693    0.4155   54.9273 H       1  ZINC000542980334    0.1100
@<TRIPOS>BOND
     1     1     2    2
     2     2     3   am
     3     2    13   am
     4     3     4    1
     5     3    29    1
     6     4     5    1
     7     4    30    1
     8     4    31    1
     9     5    11   ar
    10     5     6   ar
    11     6     7    1
    12     6     8   ar
    13     8     9   ar
    14     8    32    1
    15     9    10   ar
    16     9    33    1
    17    10    11   ar
    18    10    34    1
    19    11    12    1
    20    13    28    1
    21    13    14    1
    22    14    15    1
    23    14    35    1
    24    14    36    1
    25    15    16    1
    26    15    37    1
    27    15    38    1
    28    16    17    1
    29    16    39    1
    30    16    40    1
    31    17    18    1
    32    17    19    1
    33    17    28    1
    34    19    27    1
    35    19    20    1
    36    20    21    2
    37    20    41    1
    38    21    22    1
    39    21    42    1
    40    22    23    1
    41    22    27    2
    42    23    24    1
    43    23    25    1
    44    23    26    1
    45    28    43    1
    46    28    44    1
@<TRIPOS>SUBSTRUCTURE
     1 ZINC000542980334        1 TEMP              0 ****  ****    0 ROOT


##########                                Name:    ZINC000089894387
##########                DOCK_Rotatable_Bonds:                   8
##########                         Heavy_Atoms:                  22
##########                    Molecular_Weight:             326.823
##########                DOCK_Rotatable_Bonds:                   8
##########                       Formal_Charge:          -0.0300003
##########                     HBond_Acceptors:                   6
##########                        HBond_Donors:                   2
##########                         Heavy_Atoms:                  22
##########                          Grid_Score:          -28.754251
##########                     Grid_vdw_energy:          -24.491791
##########                      Grid_es_energy:           -4.262461
##########           Internal_energy_repulsive:           16.819263

@<TRIPOS>MOLECULE
ZINC000089894387
 45 46 1 0 0
SMALL
USER_CHARGES


@<TRIPOS>ATOM
      1 C1         -9.3832    4.2684   63.0666 C.3     1  ZINC000089894387   -0.1700
      2 C2         -9.5453    2.7471   63.0477 C.3     1  ZINC000089894387    0.1700
      3 H3        -10.4535    2.4852   62.5049 H       1  ZINC000089894387    0.0900
      4 N4         -8.3881    2.1410   62.3847 N.am    1  ZINC000089894387   -0.7400
      5 C5         -8.5656    1.1351   61.5055 C.2     1  ZINC000089894387    0.7100
      6 O6         -9.6860    0.7296   61.2637 O.2     1  ZINC000089894387   -0.5900
      7 N7         -7.5011    0.5784   60.8944 N.am    1  ZINC000089894387   -0.7500
      8 C8         -7.6942   -0.5138   59.9373 C.3     1  ZINC000089894387    0.1400
      9 C9         -7.6694    0.0454   58.5134 C.3     1  ZINC000089894387    0.0500
     10 O10        -7.5513   -1.0310   57.5809 O.3     1  ZINC000089894387   -0.3100
     11 C11        -8.5207   -1.9829   57.6115 C.ar    1  ZINC000089894387    0.1400
     12 C12        -9.8440   -1.6344   57.3842 C.ar    1  ZINC000089894387   -0.2100
     13 C13       -10.8282   -2.6036   57.4157 C.ar    1  ZINC000089894387   -0.0700
     14 C14       -10.4957   -3.9203   57.6734 C.ar    1  ZINC000089894387   -0.1500
     15 C15        -9.1762   -4.2712   57.9010 C.ar    1  ZINC000089894387    0.0000
     16 Cl16       -8.7618   -5.9256   58.2243 Cl      1  ZINC000089894387   -0.0600
     17 C17        -8.1874   -3.3057   57.8643 C.ar    1  ZINC000089894387   -0.1500
     18 C18        -9.6411    2.2266   64.4832 C.3     1  ZINC000089894387   -0.1000
     19 C19        -9.8537    0.7098   64.4652 C.3     1  ZINC000089894387   -0.1600
     20 C20        -9.8695    0.1873   65.9042 C.3     1  ZINC000089894387    0.0600
     21 O21        -8.6447    0.5392   66.5508 O.3     1  ZINC000089894387   -0.3800
     22 C22        -8.4150    1.9469   66.6393 C.3     1  ZINC000089894387    0.0600
     23 C23        -8.3407    2.5400   65.2298 C.3     1  ZINC000089894387   -0.1500
     24 H24        -8.4750    4.5304   63.6095 H       1  ZINC000089894387    0.0600
     25 H25        -9.3150    4.6392   62.0439 H       1  ZINC000089894387    0.0600
     26 H26       -10.2442    4.7194   63.5599 H       1  ZINC000089894387    0.0700
     27 H27        -7.4940    2.4636   62.5786 H       1  ZINC000089894387    0.3900
     28 H28        -6.6071    0.9011   61.0882 H       1  ZINC000089894387    0.4000
     29 H29        -6.8945   -1.2451   60.0544 H       1  ZINC000089894387    0.0800
     30 H30        -8.6553   -0.9935   60.1225 H       1  ZINC000089894387    0.0900
     31 H31        -8.5925    0.5925   58.3217 H       1  ZINC000089894387    0.0900
     32 H32        -6.8187    0.7177   58.4018 H       1  ZINC000089894387    0.0700
     33 H33       -10.1049   -0.6059   57.1832 H       1  ZINC000089894387    0.1300
     34 H34       -11.8585   -2.3321   57.2392 H       1  ZINC000089894387    0.1400
     35 H35       -11.2665   -4.6763   57.6976 H       1  ZINC000089894387    0.1400
     36 H36        -7.1579   -3.5795   58.0415 H       1  ZINC000089894387    0.1400
     37 H37       -10.4777    2.7074   64.9903 H       1  ZINC000089894387    0.0800
     38 H38       -10.8046    0.4809   63.9840 H       1  ZINC000089894387    0.0700
     39 H39        -9.0419    0.2347   63.9142 H       1  ZINC000089894387    0.0800
     40 H40       -10.7059    0.6321   66.4432 H       1  ZINC000089894387    0.0500
     41 H41        -9.9777   -0.8973   65.8960 H       1  ZINC000089894387    0.0900
     42 H42        -9.2326    2.4147   67.1879 H       1  ZINC000089894387    0.0500
     43 H43        -7.4756    2.1299   67.1606 H       1  ZINC000089894387    0.1000
     44 H44        -7.4985    2.1020   64.6942 H       1  ZINC000089894387    0.0800
     45 H45        -8.2098    3.6201   65.2956 H       1  ZINC000089894387    0.0800
@<TRIPOS>BOND
     1     1     2    1
     2     1    24    1
     3     1    25    1
     4     1    26    1
     5     2     3    1
     6     2     4    1
     7     2    18    1
     8     4     5   am
     9     4    27    1
    10     5     6    2
    11     5     7   am
    12     7     8    1
    13     7    28    1
    14     8     9    1
    15     8    29    1
    16     8    30    1
    17     9    10    1
    18     9    31    1
    19     9    32    1
    20    10    11    1
    21    11    17   ar
    22    11    12   ar
    23    12    13   ar
    24    12    33    1
    25    13    14   ar
    26    13    34    1
    27    14    15   ar
    28    14    35    1
    29    15    16    1
    30    15    17   ar
    31    17    36    1
    32    18    23    1
    33    18    19    1
    34    18    37    1
    35    19    20    1
    36    19    38    1
    37    19    39    1
    38    20    21    1
    39    20    40    1
    40    20    41    1
    41    21    22    1
    42    22    23    1
    43    22    42    1
    44    22    43    1
    45    23    44    1
    46    23    45    1
@<TRIPOS>SUBSTRUCTURE
     1 ZINC000089894387        1 TEMP              0 ****  ****    0 ROOT


##########                                Name:    ZINC000629379364
##########                DOCK_Rotatable_Bonds:                   5
##########                         Heavy_Atoms:                  23
##########                    Molecular_Weight:             386.261
##########                DOCK_Rotatable_Bonds:                   5
##########                       Formal_Charge:               -0.02
##########                     HBond_Acceptors:                   5
##########                        HBond_Donors:                   1
##########                         Heavy_Atoms:                  23
##########                          Grid_Score:          -28.734142
##########                     Grid_vdw_energy:          -19.946779
##########                      Grid_es_energy:           -8.787362
##########           Internal_energy_repulsive:           20.973335

@<TRIPOS>MOLECULE
ZINC000629379364
 44 46 1 0 0
SMALL
USER_CHARGES


@<TRIPOS>ATOM
      1 O1        -12.6875    1.9571   64.1891 O.co2   1  ZINC000629379364   -0.6800
      2 C2        -11.8324    2.1295   65.0409 C.2     1  ZINC000629379364    0.5000
      3 O3        -12.1149    2.0108   66.2211 O.co2   1  ZINC000629379364   -0.6900
      4 C4        -10.4249    2.4831   64.6350 C.3     1  ZINC000629379364   -0.1600
      5 H5        -10.0165    3.2279   65.3182 H       1  ZINC000629379364    0.0800
      6 C6        -10.4137    3.0276   63.1959 C.3     1  ZINC000629379364   -0.1300
      7 C7         -8.9880    3.2594   62.7047 C.3     1  ZINC000629379364   -0.0100
      8 N8         -8.1601    2.0444   62.8313 N.4     1  ZINC000629379364   -0.3700
      9 H9         -7.2253    2.2305   62.5003 H       1  ZINC000629379364    0.4200
     10 C10        -8.7564    0.9507   62.0528 C.3     1  ZINC000629379364   -0.0200
     11 C11        -8.3014    1.0547   60.5958 C.3     1  ZINC000629379364    0.0300
     12 O12        -8.7156   -0.1125   59.8830 O.3     1  ZINC000629379364   -0.3200
     13 C13        -8.5776   -0.0912   58.5312 C.ar    1  ZINC000629379364    0.1600
     14 C14        -9.1873   -1.0659   57.7557 C.ar    1  ZINC000629379364   -0.2300
     15 C15        -9.0455   -1.0423   56.3793 C.ar    1  ZINC000629379364    0.1500
     16 F16        -9.6390   -1.9913   55.6228 F       1  ZINC000629379364   -0.1200
     17 C17        -8.2958   -0.0459   55.7772 C.ar    1  ZINC000629379364   -0.1600
     18 C18        -7.6870    0.9265   56.5503 C.ar    1  ZINC000629379364   -0.0300
     19 Br19       -6.6639    2.2859   55.7249 Br      1  ZINC000629379364   -0.0100
     20 C20        -7.8314    0.9091   57.9249 C.ar    1  ZINC000629379364   -0.1300
     21 C21        -8.1232    1.6870   64.2402 C.3     1  ZINC000629379364   -0.0100
     22 H22        -7.8206    2.5482   64.8358 H       1  ZINC000629379364    0.1400
     23 C23        -7.2721    0.4678   64.6101 C.3     1  ZINC000629379364   -0.1300
     24 C24        -7.8792    0.0166   65.9663 C.3     1  ZINC000629379364   -0.1200
     25 C25        -9.3327    0.5502   65.9932 C.3     1  ZINC000629379364   -0.1100
     26 C26        -9.5540    1.2385   64.6434 C.3     1  ZINC000629379364   -0.0700
     27 H27        -9.9113    0.5144   63.9112 H       1  ZINC000629379364    0.1000
     28 H28       -10.9059    2.3106   62.5388 H       1  ZINC000629379364    0.0800
     29 H29       -10.9594    3.9708   63.1665 H       1  ZINC000629379364    0.1100
     30 H30        -9.0177    3.5612   61.6577 H       1  ZINC000629379364    0.1200
     31 H31        -8.5361    4.0596   63.2907 H       1  ZINC000629379364    0.1300
     32 H32        -8.4364   -0.0059   62.4660 H       1  ZINC000629379364    0.1400
     33 H33        -9.8431    1.0216   62.1000 H       1  ZINC000629379364    0.1700
     34 H34        -8.7477    1.9375   60.1379 H       1  ZINC000629379364    0.1100
     35 H35        -7.2151    1.1363   60.5593 H       1  ZINC000629379364    0.0900
     36 H36        -9.7720   -1.8430   58.2256 H       1  ZINC000629379364    0.1500
     37 H37        -8.1861   -0.0280   54.7030 H       1  ZINC000629379364    0.1500
     38 H38        -7.3560    1.6689   58.5275 H       1  ZINC000629379364    0.1500
     39 H39        -7.3767   -0.3170   63.8609 H       1  ZINC000629379364    0.0800
     40 H40        -6.2262    0.7501   64.7309 H       1  ZINC000629379364    0.0900
     41 H41        -7.8788   -1.0713   66.0328 H       1  ZINC000629379364    0.0800
     42 H42        -7.3089    0.4427   66.7916 H       1  ZINC000629379364    0.0800
     43 H43       -10.0345   -0.2728   66.1282 H       1  ZINC000629379364    0.0900
     44 H44        -9.4510    1.2829   66.7916 H       1  ZINC000629379364    0.0800
@<TRIPOS>BOND
     1     1     2   ar
     2     2     3   ar
     3     2     4    1
     4     4     5    1
     5     4    26    1
     6     4     6    1
     7     6     7    1
     8     6    28    1
     9     6    29    1
    10     7     8    1
    11     7    30    1
    12     7    31    1
    13     8     9    1
    14     8    10    1
    15     8    21    1
    16    10    11    1
    17    10    32    1
    18    10    33    1
    19    11    12    1
    20    11    34    1
    21    11    35    1
    22    12    13    1
    23    13    20   ar
    24    13    14   ar
    25    14    15   ar
    26    14    36    1
    27    15    16    1
    28    15    17   ar
    29    17    18   ar
    30    17    37    1
    31    18    19    1
    32    18    20   ar
    33    20    38    1
    34    21    22    1
    35    21    26    1
    36    21    23    1
    37    23    24    1
    38    23    39    1
    39    23    40    1
    40    24    25    1
    41    24    41    1
    42    24    42    1
    43    25    26    1
    44    25    43    1
    45    25    44    1
    46    26    27    1
@<TRIPOS>SUBSTRUCTURE
     1 ZINC000629379364        1 TEMP              0 ****  ****    0 ROOT


##########                                Name:    ZINC000179743483
##########                DOCK_Rotatable_Bonds:                   5
##########                         Heavy_Atoms:                  23
##########                    Molecular_Weight:             393.347
##########                DOCK_Rotatable_Bonds:                   5
##########                       Formal_Charge:          -0.0199999
##########                     HBond_Acceptors:                   4
##########                        HBond_Donors:                   0
##########                         Heavy_Atoms:                  23
##########                          Grid_Score:          -28.729965
##########                     Grid_vdw_energy:          -27.476068
##########                      Grid_es_energy:           -1.253896
##########           Internal_energy_repulsive:           24.071579

@<TRIPOS>MOLECULE
ZINC000179743483
 44 46 1 0 0
SMALL
USER_CHARGES


@<TRIPOS>ATOM
      1 C1         -0.4534   -0.2868   47.3594 C.3     1  ZINC000179743483   -0.1400
      2 C2         -0.8289    0.5307   48.5971 C.3     1  ZINC000179743483   -0.1000
      3 H3         -0.7689   -0.1022   49.4825 H       1  ZINC000179743483    0.1000
      4 C4          0.1388    1.7067   48.7443 C.3     1  ZINC000179743483   -0.0700
      5 C5          0.2920    2.4007   47.4154 C.ar    1  ZINC000179743483   -0.0600
      6 C6          1.3153    2.0369   46.5599 C.ar    1  ZINC000179743483   -0.1100
      7 C7          1.4559    2.6729   45.3407 C.ar    1  ZINC000179743483   -0.0900
      8 C8          0.5727    3.6732   44.9767 C.ar    1  ZINC000179743483   -0.0900
      9 Br9         0.7642    4.5431   43.3086 Br      1  ZINC000179743483   -0.0500
     10 C10        -0.4510    4.0367   45.8331 C.ar    1  ZINC000179743483   -0.0900
     11 C11        -0.5940    3.3967   47.0497 C.ar    1  ZINC000179743483   -0.1100
     12 C12        -2.2346    1.0526   48.4470 C.2     1  ZINC000179743483    0.5200
     13 O13        -2.7529    1.0924   47.3512 O.2     1  ZINC000179743483   -0.5300
     14 N14        -2.9159    1.4751   49.5304 N.am    1  ZINC000179743483   -0.6100
     15 C15        -2.3015    1.4330   50.8643 C.3     1  ZINC000179743483    0.1000
     16 C16        -2.3965    2.8258   51.4952 C.3     1  ZINC000179743483   -0.1400
     17 C17        -3.8562    3.2854   51.4897 C.3     1  ZINC000179743483   -0.1100
     18 C18        -4.3598    3.3731   50.0472 C.3     1  ZINC000179743483   -0.0200
     19 H19        -3.7368    4.0697   49.4861 H       1  ZINC000179743483    0.0900
     20 C20        -5.7868    3.8575   50.0412 C.2     1  ZINC000179743483    0.0500
     21 N21        -6.1741    5.0191   50.4481 N.2     1  ZINC000179743483   -0.4700
     22 C22        -7.4631    5.2830   50.3730 C.2     1  ZINC000179743483    0.0400
     23 C23        -8.2042    4.2888   49.8750 C.2     1  ZINC000179743483   -0.2600
     24 S24        -7.1260    2.9502   49.4873 S.3     1  ZINC000179743483    0.1300
     25 C25        -4.2849    1.9922   49.3991 C.3     1  ZINC000179743483    0.1200
     26 H26        -0.5875    0.3237   46.4664 H       1  ZINC000179743483    0.0700
     27 H27         0.5882   -0.5994   47.4328 H       1  ZINC000179743483    0.0700
     28 H28        -1.0934   -1.1669   47.2974 H       1  ZINC000179743483    0.0600
     29 H29        -0.2535    2.4103   49.4785 H       1  ZINC000179743483    0.0900
     30 H30         1.1097    1.3388   49.0762 H       1  ZINC000179743483    0.0800
     31 H31         2.0050    1.2562   46.8444 H       1  ZINC000179743483    0.1300
     32 H32         2.2556    2.3890   44.6726 H       1  ZINC000179743483    0.1300
     33 H33        -1.1408    4.8177   45.5493 H       1  ZINC000179743483    0.1300
     34 H34        -1.3933    3.6804   47.7184 H       1  ZINC000179743483    0.1300
     35 H35        -2.8310    0.7125   51.4879 H       1  ZINC000179743483    0.0700
     36 H36        -1.2546    1.1427   50.7754 H       1  ZINC000179743483    0.0900
     37 H37        -2.0315    2.7860   52.5214 H       1  ZINC000179743483    0.0800
     38 H38        -1.7920    3.5274   50.9203 H       1  ZINC000179743483    0.0700
     39 H39        -4.4642    2.5701   52.0436 H       1  ZINC000179743483    0.0800
     40 H40        -3.9300    4.2658   51.9603 H       1  ZINC000179743483    0.0700
     41 H41        -7.8857    6.2255   50.6885 H       1  ZINC000179743483    0.1800
     42 H42        -9.2746    4.3045   49.7319 H       1  ZINC000179743483    0.1800
     43 H43        -4.5483    2.0689   48.3442 H       1  ZINC000179743483    0.0900
     44 H44        -4.9749    1.3146   49.9019 H       1  ZINC000179743483    0.0800
@<TRIPOS>BOND
     1     1     2    1
     2     1    26    1
     3     1    27    1
     4     1    28    1
     5     2     3    1
     6     2     4    1
     7     2    12    1
     8     4     5    1
     9     4    29    1
    10     4    30    1
    11     5    11   ar
    12     5     6   ar
    13     6     7   ar
    14     6    31    1
    15     7     8   ar
    16     7    32    1
    17     8     9    1
    18     8    10   ar
    19    10    11   ar
    20    10    33    1
    21    11    34    1
    22    12    13    2
    23    12    14   am
    24    14    25    1
    25    14    15    1
    26    15    16    1
    27    15    35    1
    28    15    36    1
    29    16    17    1
    30    16    37    1
    31    16    38    1
    32    17    18    1
    33    17    39    1
    34    17    40    1
    35    18    19    1
    36    18    20    1
    37    18    25    1
    38    20    24    1
    39    20    21    2
    40    21    22    1
    41    22    23    2
    42    22    41    1
    43    23    24    1
    44    23    42    1
    45    25    43    1
    46    25    44    1
@<TRIPOS>SUBSTRUCTURE
     1 ZINC000179743483        1 TEMP              0 ****  ****    0 ROOT


##########                                Name:    ZINC000420486261
##########                DOCK_Rotatable_Bonds:                   7
##########                         Heavy_Atoms:                  26
##########                    Molecular_Weight:             353.378
##########                DOCK_Rotatable_Bonds:                   7
##########                       Formal_Charge:        -2.98023e-08
##########                     HBond_Acceptors:                   7
##########                        HBond_Donors:                   0
##########                         Heavy_Atoms:                  26
##########                          Grid_Score:          -28.727379
##########                     Grid_vdw_energy:          -27.246065
##########                      Grid_es_energy:           -1.481313
##########           Internal_energy_repulsive:            9.466464

@<TRIPOS>MOLECULE
ZINC000420486261
 45 47 1 0 0
SMALL
USER_CHARGES


@<TRIPOS>ATOM
      1 C1        -15.2210   -0.2622   52.0110 C.3     1  ZINC000420486261    0.0400
      2 O2        -14.9668   -0.6561   53.3853 O.3     1  ZINC000420486261   -0.3500
      3 C3        -15.8232   -1.5368   53.9372 C.2     1  ZINC000420486261    0.5100
      4 O4        -16.7425   -1.9827   53.2810 O.2     1  ZINC000420486261   -0.4900
      5 C5        -15.6439   -1.9614   55.3442 C.ar    1  ZINC000420486261   -0.0700
      6 C6        -16.7189   -2.4630   56.0854 C.ar    1  ZINC000420486261   -0.0900
      7 C7        -16.5120   -2.8503   57.3979 C.ar    1  ZINC000420486261    0.1100
      8 N8        -15.3243   -2.7530   57.9549 N.ar    1  ZINC000420486261   -0.4200
      9 C9        -14.2743   -2.2836   57.2924 C.ar    1  ZINC000420486261    0.1900
     10 C10       -12.9607   -2.1966   57.9686 C.2     1  ZINC000420486261    0.2200
     11 N11       -11.8337   -2.7532   57.5698 N.2     1  ZINC000420486261   -0.4300
     12 C12       -10.9119   -2.4028   58.4914 C.2     1  ZINC000420486261    0.2200
     13 C13        -9.4785   -2.7841   58.4894 C.ar    1  ZINC000420486261   -0.0600
     14 C14        -9.1111   -4.1241   58.3928 C.ar    1  ZINC000420486261   -0.0300
     15 C15        -7.7760   -4.4738   58.3913 C.ar    1  ZINC000420486261   -0.1600
     16 C16        -6.7997   -3.4977   58.4856 C.ar    1  ZINC000420486261   -0.0600
     17 C17        -7.1528   -2.1652   58.5818 C.ar    1  ZINC000420486261   -0.2200
     18 C18        -8.4896   -1.7993   58.5787 C.ar    1  ZINC000420486261    0.1700
     19 O19        -8.8381   -0.4902   58.6731 O.3     1  ZINC000420486261   -0.2900
     20 C20        -8.2229    0.2714   59.7140 C.3     1  ZINC000420486261    0.0600
     21 C21        -8.9667    0.0314   61.0293 C.3     1  ZINC000420486261   -0.0900
     22 C22        -7.9928    0.1781   62.2001 C.3     1  ZINC000420486261   -0.1500
     23 C23       -10.0938    1.0563   61.1721 C.3     1  ZINC000420486261   -0.1500
     24 N24       -11.5166   -1.6641   59.3869 N.2     1  ZINC000420486261   -0.3400
     25 O25       -12.6878   -1.5313   59.1015 O.3     1  ZINC000420486261    0.1000
     26 C26       -14.3949   -1.8772   55.9651 C.ar    1  ZINC000420486261   -0.0700
     27 H27       -14.4596    0.4486   51.6900 H       1  ZINC000420486261    0.1100
     28 H28       -15.1900   -1.1426   51.3690 H       1  ZINC000420486261    0.0700
     29 H29       -16.2043    0.2030   51.9424 H       1  ZINC000420486261    0.0700
     30 H30       -17.6987   -2.5469   55.6390 H       1  ZINC000420486261    0.1600
     31 H31       -17.3389   -3.2381   57.9742 H       1  ZINC000420486261    0.1800
     32 H32        -9.8702   -4.8888   58.3195 H       1  ZINC000420486261    0.1400
     33 H33        -7.4922   -5.5132   58.3169 H       1  ZINC000420486261    0.1300
     34 H34        -5.7569   -3.7785   58.4843 H       1  ZINC000420486261    0.1300
     35 H35        -6.3864   -1.4079   58.6551 H       1  ZINC000420486261    0.1400
     36 H36        -7.1830   -0.0363   59.8233 H       1  ZINC000420486261    0.0600
     37 H37        -8.2637    1.3310   59.4616 H       1  ZINC000420486261    0.0600
     38 H38        -9.3877   -0.9740   61.0304 H       1  ZINC000420486261    0.0800
     39 H39        -7.5720    1.1835   62.1989 H       1  ZINC000420486261    0.0600
     40 H40        -8.5227    0.0071   63.1371 H       1  ZINC000420486261    0.0700
     41 H41        -7.1899   -0.5520   62.0984 H       1  ZINC000420486261    0.0600
     42 H42        -9.6730    2.0617   61.1709 H       1  ZINC000420486261    0.0500
     43 H43       -10.7877    0.9518   60.3380 H       1  ZINC000420486261    0.0600
     44 H44       -10.6238    0.8853   62.1092 H       1  ZINC000420486261    0.0600
     45 H45       -13.5392   -1.4959   55.4277 H       1  ZINC000420486261    0.1600
@<TRIPOS>BOND
     1     1     2    1
     2     1    27    1
     3     1    28    1
     4     1    29    1
     5     2     3    1
     6     3     4    2
     7     3     5    1
     8     5    26   ar
     9     5     6   ar
    10     6     7   ar
    11     6    30    1
    12     7     8   ar
    13     7    31    1
    14     8     9   ar
    15     9    10    1
    16     9    26   ar
    17    10    25    1
    18    10    11    2
    19    11    12    1
    20    12    13    1
    21    12    24    2
    22    13    18   ar
    23    13    14   ar
    24    14    15   ar
    25    14    32    1
    26    15    16   ar
    27    15    33    1
    28    16    17   ar
    29    16    34    1
    30    17    18   ar
    31    17    35    1
    32    18    19    1
    33    19    20    1
    34    20    21    1
    35    20    36    1
    36    20    37    1
    37    21    22    1
    38    21    23    1
    39    21    38    1
    40    22    39    1
    41    22    40    1
    42    22    41    1
    43    23    42    1
    44    23    43    1
    45    23    44    1
    46    24    25    1
    47    26    45    1
@<TRIPOS>SUBSTRUCTURE
     1 ZINC000420486261        1 TEMP              0 ****  ****    0 ROOT


##########                                Name:    ZINC000753658424
##########                DOCK_Rotatable_Bonds:                   8
##########                         Heavy_Atoms:                  24
##########                    Molecular_Weight:             332.399
##########                DOCK_Rotatable_Bonds:                   8
##########                       Formal_Charge:        -9.16421e-07
##########                     HBond_Acceptors:                   6
##########                        HBond_Donors:                   3
##########                         Heavy_Atoms:                  24
##########                          Grid_Score:          -28.681541
##########                     Grid_vdw_energy:          -27.281096
##########                      Grid_es_energy:           -1.400447
##########           Internal_energy_repulsive:           19.931509

@<TRIPOS>MOLECULE
ZINC000753658424
 48 49 1 0 0
SMALL
USER_CHARGES


@<TRIPOS>ATOM
      1 C1         -6.6139   -1.8552   59.2520 C.3     1  ZINC000753658424   -0.2000
      2 C2         -7.7333   -0.9950   58.7245 C.2     1  ZINC000753658424    0.4400
      3 O3         -7.5319   -0.2384   57.7977 O.2     1  ZINC000753658424   -0.4500
      4 C4         -9.0657   -1.0724   59.3313 C.2     1  ZINC000753658424   -0.2500
      5 C5         -9.4603   -0.5008   60.5310 C.2     1  ZINC000753658424    0.1000
      6 C6         -8.5871    0.3162   61.4481 C.3     1  ZINC000753658424   -0.1000
      7 N7        -10.7517   -0.7985   60.7358 N.pl3   1  ZINC000753658424   -0.5300
      8 C8        -11.2159   -1.5606   59.6853 C.2     1  ZINC000753658424   -0.0600
      9 C9        -12.5801   -2.0849   59.5413 C.2     1  ZINC000753658424    0.5900
     10 O10       -12.9552   -3.0053   60.2431 O.2     1  ZINC000753658424   -0.5200
     11 N11       -13.4164   -1.5467   58.6318 N.am    1  ZINC000753658424   -0.7300
     12 C12       -14.7767   -2.0709   58.4870 C.3     1  ZINC000753658424    0.0900
     13 C13       -14.8900   -2.8381   57.1681 C.3     1  ZINC000753658424    0.1900
     14 H14       -15.8796   -3.2886   57.0936 H       1  ZINC000753658424    0.1300
     15 O15       -13.8954   -3.8635   57.1268 O.3     1  ZINC000753658424   -0.5500
     16 C16       -14.6817   -1.8896   56.0157 C.2     1  ZINC000753658424   -0.0600
     17 C17       -15.6434   -1.1839   55.3942 C.2     1  ZINC000753658424   -0.1800
     18 C18       -15.0082   -0.4309   54.3800 C.2     1  ZINC000753658424   -0.2100
     19 C19       -13.6964   -0.7214   54.4426 C.2     1  ZINC000753658424    0.0000
     20 C20       -12.6238   -0.1511   53.5508 C.3     1  ZINC000753658424   -0.0800
     21 O21       -13.5036   -1.6011   55.4390 O.3     1  ZINC000753658424   -0.1700
     22 C22       -10.1957   -1.7398   58.8003 C.2     1  ZINC000753658424   -0.0100
     23 C23       -10.2559   -2.5102   57.5065 C.3     1  ZINC000753658424   -0.0500
     24 C24       -10.1511   -1.5387   56.3291 C.3     1  ZINC000753658424   -0.1500
     25 C25        -9.0955   -3.5058   57.4512 C.3     1  ZINC000753658424   -0.1500
     26 H26        -5.7284   -1.7203   58.6309 H       1  ZINC000753658424    0.0800
     27 H27        -6.3857   -1.5657   60.2777 H       1  ZINC000753658424    0.1000
     28 H28        -6.9180   -2.9016   59.2288 H       1  ZINC000753658424    0.0900
     29 H29        -8.7194    1.3754   61.2276 H       1  ZINC000753658424    0.0900
     30 H30        -8.8669    0.1228   62.4837 H       1  ZINC000753658424    0.0800
     31 H31        -7.5433    0.0411   61.2964 H       1  ZINC000753658424    0.0900
     32 H32       -11.2767   -0.5210   61.5029 H       1  ZINC000753658424    0.4200
     33 H33       -13.1176   -0.8121   58.0731 H       1  ZINC000753658424    0.4000
     34 H34       -14.9979   -2.7414   59.3175 H       1  ZINC000753658424    0.0900
     35 H35       -15.4869   -1.2441   58.4885 H       1  ZINC000753658424    0.0800
     36 H36       -13.9265   -4.4721   57.8776 H       1  ZINC000753658424    0.3900
     37 H37       -16.6984   -1.1915   55.6250 H       1  ZINC000753658424    0.1500
     38 H38       -15.4849    0.2473   53.6878 H       1  ZINC000753658424    0.1500
     39 H39       -12.2255    0.7596   53.9982 H       1  ZINC000753658424    0.0800
     40 H40       -11.8216   -0.8799   53.4353 H       1  ZINC000753658424    0.0800
     41 H41       -13.0484    0.0798   52.5738 H       1  ZINC000753658424    0.0900
     42 H42       -11.2010   -3.0502   57.4489 H       1  ZINC000753658424    0.1100
     43 H43        -9.1592   -1.0870   56.3182 H       1  ZINC000753658424    0.0500
     44 H44       -10.3147   -2.0789   55.3967 H       1  ZINC000753658424    0.0600
     45 H45       -10.9048   -0.7582   56.4339 H       1  ZINC000753658424    0.0600
     46 H46        -9.2137   -4.2459   58.2426 H       1  ZINC000753658424    0.0500
     47 H47        -9.0923   -4.0065   56.4830 H       1  ZINC000753658424    0.0600
     48 H48        -8.1539   -2.9742   57.5886 H       1  ZINC000753658424    0.0600
@<TRIPOS>BOND
     1     1     2    1
     2     1    26    1
     3     1    27    1
     4     1    28    1
     5     2     3    2
     6     2     4    1
     7     4    22    1
     8     4     5    2
     9     5     6    1
    10     5     7    1
    11     6    29    1
    12     6    30    1
    13     6    31    1
    14     7     8    1
    15     7    32    1
    16     8     9    1
    17     8    22    2
    18     9    10    2
    19     9    11   am
    20    11    12    1
    21    11    33    1
    22    12    13    1
    23    12    34    1
    24    12    35    1
    25    13    14    1
    26    13    15    1
    27    13    16    1
    28    15    36    1
    29    16    21    1
    30    16    17    2
    31    17    18    1
    32    17    37    1
    33    18    19    2
    34    18    38    1
    35    19    20    1
    36    19    21    1
    37    20    39    1
    38    20    40    1
    39    20    41    1
    40    22    23    1
    41    23    24    1
    42    23    25    1
    43    23    42    1
    44    24    43    1
    45    24    44    1
    46    24    45    1
    47    25    46    1
    48    25    47    1
    49    25    48    1
@<TRIPOS>SUBSTRUCTURE
     1 ZINC000753658424        1 TEMP              0 ****  ****    0 ROOT


##########                                Name:    ZINC000460163972
##########                DOCK_Rotatable_Bonds:                   7
##########                         Heavy_Atoms:                  28
##########                    Molecular_Weight:             408.469
##########                DOCK_Rotatable_Bonds:                   7
##########                       Formal_Charge:          -0.0100001
##########                     HBond_Acceptors:                   8
##########                        HBond_Donors:                   2
##########                         Heavy_Atoms:                  28
##########                          Grid_Score:          -28.672983
##########                     Grid_vdw_energy:          -29.361595
##########                      Grid_es_energy:            0.688612
##########           Internal_energy_repulsive:           48.705559

@<TRIPOS>MOLECULE
ZINC000460163972
 50 52 1 0 0
SMALL
USER_CHARGES


@<TRIPOS>ATOM
      1 C1        -11.0295   -1.5356   57.5837 C.3     1  ZINC000460163972   -0.1400
      2 C2        -10.7344   -0.9284   58.9310 C.ar    1  ZINC000460163972    0.0100
      3 C3        -11.7584   -0.7346   59.8396 C.ar    1  ZINC000460163972   -0.1300
      4 C4        -11.4912   -0.1783   61.0754 C.ar    1  ZINC000460163972   -0.0600
      5 C5        -10.1926    0.1862   61.4048 C.ar    1  ZINC000460163972    0.1100
      6 N6         -9.9185    0.7496   62.6559 N.am    1  ZINC000460163972   -0.6700
      7 C7        -10.5648    1.8651   63.0489 C.2     1  ZINC000460163972    0.5200
      8 O8        -11.3841    2.3806   62.3180 O.2     1  ZINC000460163972   -0.5100
      9 C9        -10.2697    2.4719   64.3964 C.3     1  ZINC000460163972   -0.0700
     10 H10       -10.0421    3.5311   64.2758 H       1  ZINC000460163972    0.1200
     11 C11       -11.4898    2.3127   65.3057 C.3     1  ZINC000460163972   -0.1500
     12 C12        -9.0874    1.7713   65.0147 C.ar    1  ZINC000460163972   -0.0600
     13 C13        -9.2279    0.4901   65.5139 C.ar    1  ZINC000460163972   -0.0700
     14 C14        -8.1447   -0.1548   66.0818 C.ar    1  ZINC000460163972   -0.1200
     15 C15        -6.9183    0.4823   66.1503 C.ar    1  ZINC000460163972    0.0700
     16 F16        -5.8593   -0.1473   66.7046 F       1  ZINC000460163972   -0.1300
     17 C17        -6.7773    1.7677   65.6490 C.ar    1  ZINC000460163972    0.0700
     18 F18        -5.5808    2.3918   65.7148 F       1  ZINC000460163972   -0.1300
     19 C19        -7.8621    2.4086   65.0770 C.ar    1  ZINC000460163972   -0.1200
     20 C20        -9.1660   -0.0101   60.4900 C.ar    1  ZINC000460163972    0.0000
     21 C21        -7.7550    0.3836   60.8437 C.3     1  ZINC000460163972   -0.1500
     22 C22        -9.4389   -0.5711   59.2581 C.ar    1  ZINC000460163972   -0.6700
     23 S23        -8.1374   -0.8211   58.0971 S.o2    1  ZINC000460163972    2.7000
     24 O24        -8.2955    0.1750   57.0962 O.2     1  ZINC000460163972   -0.9500
     25 O25        -6.9467   -0.9776   58.8567 O.2     1  ZINC000460163972   -0.9500
     26 N26        -8.4141   -2.2763   57.3564 N.am    1  ZINC000460163972   -1.0900
     27 C27        -8.4670   -3.5050   58.1523 C.3     1  ZINC000460163972    0.0800
     28 C28        -8.2247   -4.8290   57.4247 C.3     1  ZINC000460163972   -0.1800
     29 C29        -7.1568   -4.2661   58.3646 C.3     1  ZINC000460163972   -0.1900
     30 H30       -10.8411   -2.6086   57.6197 H       1  ZINC000460163972    0.1000
     31 H31       -12.0738   -1.3584   57.3261 H       1  ZINC000460163972    0.0800
     32 H32       -10.3871   -1.0790   56.8308 H       1  ZINC000460163972    0.0700
     33 H33       -12.7683   -1.0184   59.5827 H       1  ZINC000460163972    0.1400
     34 H34       -12.2917   -0.0266   61.7844 H       1  ZINC000460163972    0.1600
     35 H35        -9.2633    0.3374   63.2405 H       1  ZINC000460163972    0.4100
     36 H36       -11.2763    2.7517   66.2802 H       1  ZINC000460163972    0.0800
     37 H37       -12.3449    2.8195   64.8584 H       1  ZINC000460163972    0.0700
     38 H38       -11.7174    1.2536   65.4262 H       1  ZINC000460163972    0.0700
     39 H39       -10.1848   -0.0076   65.4607 H       1  ZINC000460163972    0.1400
     40 H40        -8.2559   -1.1556   66.4720 H       1  ZINC000460163972    0.1500
     41 H41        -7.7535    3.4094   64.6859 H       1  ZINC000460163972    0.1500
     42 H42        -7.2133   -0.4910   61.2040 H       1  ZINC000460163972    0.1000
     43 H43        -7.2563    0.7812   59.9597 H       1  ZINC000460163972    0.1000
     44 H44        -7.7748    1.1453   61.6231 H       1  ZINC000460163972    0.0700
     45 H45        -8.5411   -2.3148   56.3955 H       1  ZINC000460163972    0.4200
     46 H46        -9.1871   -3.5045   58.9705 H       1  ZINC000460163972    0.1300
     47 H47        -8.7856   -5.6998   57.7641 H       1  ZINC000460163972    0.1100
     48 H48        -8.0260   -4.7857   56.3538 H       1  ZINC000460163972    0.1000
     49 H49        -6.2555   -3.8524   57.9122 H       1  ZINC000460163972    0.1000
     50 H50        -7.0151   -4.7666   59.3226 H       1  ZINC000460163972    0.1000
@<TRIPOS>BOND
     1     1     2    1
     2     1    30    1
     3     1    31    1
     4     1    32    1
     5     2    22   ar
     6     2     3   ar
     7     3     4   ar
     8     3    33    1
     9     4     5   ar
    10     4    34    1
    11     5     6    1
    12     5    20   ar
    13     6     7   am
    14     6    35    1
    15     7     8    2
    16     7     9    1
    17     9    10    1
    18     9    11    1
    19     9    12    1
    20    11    36    1
    21    11    37    1
    22    11    38    1
    23    12    19   ar
    24    12    13   ar
    25    13    14   ar
    26    13    39    1
    27    14    15   ar
    28    14    40    1
    29    15    16    1
    30    15    17   ar
    31    17    18    1
    32    17    19   ar
    33    19    41    1
    34    20    21    1
    35    20    22   ar
    36    21    42    1
    37    21    43    1
    38    21    44    1
    39    22    23    1
    40    23    24    2
    41    23    25    2
    42    23    26   am
    43    26    27    1
    44    26    45    1
    45    27    29    1
    46    27    28    1
    47    27    46    1
    48    28    29    1
    49    28    47    1
    50    28    48    1
    51    29    49    1
    52    29    50    1
@<TRIPOS>SUBSTRUCTURE
     1 ZINC000460163972        1 TEMP              0 ****  ****    0 ROOT


##########                                Name:    ZINC000416583757
##########                DOCK_Rotatable_Bonds:                   7
##########                         Heavy_Atoms:                  20
##########                    Molecular_Weight:             380.693
##########                DOCK_Rotatable_Bonds:                   7
##########                       Formal_Charge:         1.04308e-07
##########                     HBond_Acceptors:                   7
##########                        HBond_Donors:                   1
##########                         Heavy_Atoms:                  20
##########                          Grid_Score:          -28.650274
##########                     Grid_vdw_energy:          -29.110859
##########                      Grid_es_energy:            0.460585
##########           Internal_energy_repulsive:            8.376778

@<TRIPOS>MOLECULE
ZINC000416583757
 35 35 1 0 0
SMALL
USER_CHARGES


@<TRIPOS>ATOM
      1 C1        -13.7753   -0.2780   60.6900 C.3     1  ZINC000416583757   -0.1500
      2 C2        -12.9376   -1.1012   59.7095 C.3     1  ZINC000416583757   -0.0200
      3 H3        -12.8382   -0.5567   58.7704 H       1  ZINC000416583757    0.1200
      4 C4        -11.6027   -1.3379   60.2831 C.1     1  ZINC000416583757    0.2100
      5 N5        -10.5727   -1.5206   60.7258 N.1     1  ZINC000416583757   -0.4200
      6 C6        -13.6268   -2.4425   59.4509 C.3     1  ZINC000416583757    0.1300
      7 N7        -14.0098   -2.5304   58.0396 N.am    1  ZINC000416583757   -1.0100
      8 C8        -14.9737   -1.5788   57.4815 C.3     1  ZINC000416583757    0.0800
      9 S9        -13.3533   -3.7057   57.0751 S.o2    1  ZINC000416583757    2.7800
     10 O10       -13.5856   -4.9425   57.7352 O.2     1  ZINC000416583757   -0.9700
     11 O11       -13.7982   -3.4347   55.7531 O.2     1  ZINC000416583757   -0.9700
     12 N12       -11.7130   -3.4779   57.0723 N.am    1  ZINC000416583757   -1.1300
     13 C13       -11.1495   -2.2161   56.5862 C.3     1  ZINC000416583757    0.1600
     14 C14        -9.7960   -1.9964   57.2113 C.ar    1  ZINC000416583757   -0.0800
     15 C15        -9.0158   -3.0800   57.5679 C.ar    1  ZINC000416583757   -0.0800
     16 C16        -7.7727   -2.8788   58.1415 C.ar    1  ZINC000416583757   -0.0300
     17 Cl17       -6.7924   -4.2399   58.5889 Cl      1  ZINC000416583757   -0.0500
     18 C18        -7.3112   -1.5930   58.3578 C.ar    1  ZINC000416583757   -0.0700
     19 C19        -8.0925   -0.5090   58.0006 C.ar    1  ZINC000416583757   -0.0800
     20 Br20       -7.4623    1.2493   58.2960 Br      1  ZINC000416583757   -0.0300
     21 C21        -9.3328   -0.7112   57.4226 C.ar    1  ZINC000416583757   -0.0700
     22 H22       -13.2280    0.6224   60.9686 H       1  ZINC000416583757    0.0700
     23 H23       -14.7174    0.0008   60.2180 H       1  ZINC000416583757    0.0800
     24 H24       -13.9774   -0.8710   61.5821 H       1  ZINC000416583757    0.0700
     25 H25       -12.9421   -3.2554   59.6929 H       1  ZINC000416583757    0.0900
     26 H26       -14.5173   -2.5195   60.0745 H       1  ZINC000416583757    0.1000
     27 H27       -14.4430   -0.7088   57.0946 H       1  ZINC000416583757    0.0700
     28 H28       -15.5283   -2.0552   56.6731 H       1  ZINC000416583757    0.0800
     29 H29       -15.6670   -1.2641   58.2615 H       1  ZINC000416583757    0.0800
     30 H30       -11.1253   -4.1800   57.3926 H       1  ZINC000416583757    0.4200
     31 H31       -11.0464   -2.2580   55.5019 H       1  ZINC000416583757    0.0800
     32 H32       -11.8123   -1.3940   56.8565 H       1  ZINC000416583757    0.1000
     33 H33        -9.3766   -4.0839   57.3992 H       1  ZINC000416583757    0.1500
     34 H34        -6.3411   -1.4354   58.8057 H       1  ZINC000416583757    0.1500
     35 H35        -9.9429    0.1353   57.1437 H       1  ZINC000416583757    0.1400
@<TRIPOS>BOND
     1     1     2    1
     2     1    22    1
     3     1    23    1
     4     1    24    1
     5     2     3    1
     6     2     4    1
     7     2     6    1
     8     4     5    3
     9     6     7    1
    10     6    25    1
    11     6    26    1
    12     7     8    1
    13     7     9   am
    14     8    27    1
    15     8    28    1
    16     8    29    1
    17     9    10    2
    18     9    11    2
    19     9    12   am
    20    12    13    1
    21    12    30    1
    22    13    14    1
    23    13    31    1
    24    13    32    1
    25    14    21   ar
    26    14    15   ar
    27    15    16   ar
    28    15    33    1
    29    16    17    1
    30    16    18   ar
    31    18    19   ar
    32    18    34    1
    33    19    20    1
    34    19    21   ar
    35    21    35    1
@<TRIPOS>SUBSTRUCTURE
     1 ZINC000416583757        1 TEMP              0 ****  ****    0 ROOT


##########                                Name:    ZINC001220171460
##########                DOCK_Rotatable_Bonds:                  10
##########                         Heavy_Atoms:                  25
##########                    Molecular_Weight:             383.773
##########                DOCK_Rotatable_Bonds:                  10
##########                       Formal_Charge:           0.0199996
##########                     HBond_Acceptors:                  10
##########                        HBond_Donors:                   3
##########                         Heavy_Atoms:                  25
##########                          Grid_Score:          -28.630238
##########                     Grid_vdw_energy:          -27.788008
##########                      Grid_es_energy:           -0.842230
##########           Internal_energy_repulsive:           13.370216

@<TRIPOS>MOLECULE
ZINC001220171460
 43 44 1 0 0
SMALL
USER_CHARGES


@<TRIPOS>ATOM
      1 C1         -8.1160    1.0495   55.7288 C.3     1  ZINC001220171460    0.0200
      2 O2         -8.6464   -0.1485   55.1583 O.3     1  ZINC001220171460   -0.3100
      3 C3         -9.8178   -0.0412   54.4752 C.ar    1  ZINC001220171460    0.1000
      4 C4        -11.0004    0.1880   55.1582 C.ar    1  ZINC001220171460   -0.1500
      5 C5        -12.1918    0.2971   54.4627 C.ar    1  ZINC001220171460   -0.0600
      6 Cl6       -13.6730    0.5850   55.3212 Cl      1  ZINC001220171460   -0.0400
      7 C7        -12.2047    0.1773   53.0827 C.ar    1  ZINC001220171460    0.1000
      8 F8        -13.3698    0.2848   52.4073 F       1  ZINC001220171460   -0.1200
      9 C9        -11.0257   -0.0518   52.3947 C.ar    1  ZINC001220171460   -0.1200
     10 C10        -9.8287   -0.1561   53.0870 C.ar    1  ZINC001220171460    0.1800
     11 N11        -8.6333   -0.3881   52.3920 N.am    1  ZINC001220171460   -0.6700
     12 C12        -7.9767    0.6398   51.8186 C.2     1  ZINC001220171460    0.7100
     13 O13        -8.4210    1.7684   51.9041 O.2     1  ZINC001220171460   -0.5700
     14 N14        -6.8276    0.4168   51.1505 N.am    1  ZINC001220171460   -0.7400
     15 C15        -6.1148    1.5338   50.5258 C.3     1  ZINC001220171460    0.1400
     16 C16        -4.6656    1.5521   51.0161 C.3     1  ZINC001220171460   -0.1400
     17 C17        -3.8489    2.5200   50.1575 C.3     1  ZINC001220171460    0.0500
     18 H18        -2.8005    2.4703   50.4514 H       1  ZINC001220171460    0.1000
     19 N19        -3.9789    2.1483   48.7423 N.3     1  ZINC001220171460   -0.6500
     20 C20        -2.8039    2.5811   47.9742 C.3     1  ZINC001220171460    0.0100
     21 C21        -1.8558    1.4951   47.4616 C.3     1  ZINC001220171460   -0.2000
     22 C22        -2.7685    2.2378   46.4837 C.3     1  ZINC001220171460   -0.1600
     23 C23        -4.3684    3.9447   50.3605 C.3     1  ZINC001220171460    0.4600
     24 F24        -5.4601    4.1679   49.5147 F       1  ZINC001220171460   -0.1800
     25 F25        -4.7678    4.1103   51.6910 F       1  ZINC001220171460   -0.1800
     26 F26        -3.3522    4.8586   50.0614 F       1  ZINC001220171460   -0.1700
     27 H27        -7.9287    1.7764   54.9384 H       1  ZINC001220171460    0.0600
     28 H28        -8.8326    1.4619   56.4391 H       1  ZINC001220171460    0.0600
     29 H29        -7.1823    0.8243   56.2441 H       1  ZINC001220171460    0.1100
     30 H30       -10.9930    0.2813   56.2342 H       1  ZINC001220171460    0.1500
     31 H31       -11.0374   -0.1452   51.3188 H       1  ZINC001220171460    0.1800
     32 H32        -8.2788   -1.2885   52.3238 H       1  ZINC001220171460    0.4200
     33 H33        -6.4725   -0.4834   51.0834 H       1  ZINC001220171460    0.4000
     34 H34        -6.1304    1.4145   49.4425 H       1  ZINC001220171460    0.0800
     35 H35        -6.6013    2.4713   50.7951 H       1  ZINC001220171460    0.0700
     36 H36        -4.6379    1.8772   52.0561 H       1  ZINC001220171460    0.1000
     37 H37        -4.2426    0.5506   50.9370 H       1  ZINC001220171460    0.1000
     38 H38        -4.1312    1.1560   48.6415 H       1  ZINC001220171460    0.3600
     39 H39        -2.3636    3.5293   48.2829 H       1  ZINC001220171460    0.1200
     40 H40        -0.7915    1.7287   47.4330 H       1  ZINC001220171460    0.1000
     41 H41        -2.1040    0.4596   47.6942 H       1  ZINC001220171460    0.1000
     42 H42        -3.6171    1.6908   46.0729 H       1  ZINC001220171460    0.1000
     43 H43        -2.3047    2.9600   45.8118 H       1  ZINC001220171460    0.1000
@<TRIPOS>BOND
     1     1     2    1
     2     1    27    1
     3     1    28    1
     4     1    29    1
     5     2     3    1
     6     3    10   ar
     7     3     4   ar
     8     4     5   ar
     9     4    30    1
    10     5     6    1
    11     5     7   ar
    12     7     8    1
    13     7     9   ar
    14     9    10   ar
    15     9    31    1
    16    10    11    1
    17    11    12   am
    18    11    32    1
    19    12    13    2
    20    12    14   am
    21    14    15    1
    22    14    33    1
    23    15    16    1
    24    15    34    1
    25    15    35    1
    26    16    17    1
    27    16    36    1
    28    16    37    1
    29    17    18    1
    30    17    19    1
    31    17    23    1
    32    19    20    1
    33    19    38    1
    34    20    22    1
    35    20    21    1
    36    20    39    1
    37    21    22    1
    38    21    40    1
    39    21    41    1
    40    22    42    1
    41    22    43    1
    42    23    24    1
    43    23    25    1
    44    23    26    1
@<TRIPOS>SUBSTRUCTURE
     1 ZINC001220171460        1 TEMP              0 ****  ****    0 ROOT


##########                                Name:    ZINC000441887161
##########                DOCK_Rotatable_Bonds:                   6
##########                         Heavy_Atoms:                  27
##########                    Molecular_Weight:             383.514
##########                DOCK_Rotatable_Bonds:                   6
##########                       Formal_Charge:          -0.0300002
##########                     HBond_Acceptors:                   6
##########                        HBond_Donors:                   1
##########                         Heavy_Atoms:                  27
##########                          Grid_Score:          -28.627007
##########                     Grid_vdw_energy:          -28.526590
##########                      Grid_es_energy:           -0.100416
##########           Internal_energy_repulsive:           17.572512

@<TRIPOS>MOLECULE
ZINC000441887161
 52 54 1 0 0
SMALL
USER_CHARGES


@<TRIPOS>ATOM
      1 C1         -8.8235    1.2206   55.3908 C.3     1  ZINC000441887161   -0.1200
      2 C2         -8.1402    1.5741   54.0950 C.ar    1  ZINC000441887161   -0.0700
      3 C3         -7.6343    2.8462   53.9051 C.ar    1  ZINC000441887161   -0.1200
      4 C4         -7.0073    3.1705   52.7163 C.ar    1  ZINC000441887161   -0.0900
      5 C5         -6.8860    2.2225   51.7179 C.ar    1  ZINC000441887161   -0.1100
      6 C6         -6.2031    2.5761   50.4220 C.3     1  ZINC000441887161    0.1900
      7 H7         -5.6536    1.7101   50.0527 H       1  ZINC000441887161    0.1000
      8 C8         -7.2526    2.9923   49.3895 C.3     1  ZINC000441887161    0.1000
      9 N9         -8.0252    4.1242   49.9074 N.pl3   1  ZINC000441887161   -0.4600
     10 C10        -9.2580    4.0633   50.4991 C.2     1  ZINC000441887161   -0.0500
     11 C11        -9.5972    5.3255   50.8237 C.2     1  ZINC000441887161   -0.0200
     12 N12        -8.5988    6.1350   50.4405 N.2     1  ZINC000441887161   -0.4900
     13 C13        -7.6515    5.4218   49.8954 C.2     1  ZINC000441887161    0.1800
     14 N14        -5.2728    3.6851   50.6471 N.am    1  ZINC000441887161   -1.1100
     15 S15        -3.7287    3.3793   51.1616 S.o2    1  ZINC000441887161    2.6900
     16 O16        -3.0439    4.6241   51.1378 O.2     1  ZINC000441887161   -0.9600
     17 O17        -3.8463    2.5791   52.3300 O.2     1  ZINC000441887161   -0.9500
     18 C18        -2.9629    2.3666   49.9400 C.ar    1  ZINC000441887161   -0.6800
     19 C19        -2.2192    1.2659   50.3217 C.ar    1  ZINC000441887161   -0.0300
     20 C20        -1.6182    0.4714   49.3632 C.ar    1  ZINC000441887161   -0.1300
     21 C21        -1.7615    0.7774   48.0230 C.ar    1  ZINC000441887161   -0.0200
     22 C22        -1.1060   -0.0884   46.9781 C.3     1  ZINC000441887161   -0.1300
     23 C23        -2.5065    1.8777   47.6410 C.ar    1  ZINC000441887161   -0.1000
     24 C24        -2.6630    2.2111   46.1797 C.3     1  ZINC000441887161   -0.1200
     25 C25        -3.1104    2.6697   48.5991 C.ar    1  ZINC000441887161   -0.0100
     26 C26        -7.3909    0.9495   51.9084 C.ar    1  ZINC000441887161   -0.0700
     27 C27        -7.2584   -0.0843   50.8200 C.3     1  ZINC000441887161   -0.1300
     28 C28        -8.0143    0.6242   53.0983 C.ar    1  ZINC000441887161   -0.1200
     29 H29        -8.0867    0.8403   56.0983 H       1  ZINC000441887161    0.0700
     30 H30        -9.2997    2.1094   55.8047 H       1  ZINC000441887161    0.0700
     31 H31        -9.5786    0.4563   55.2066 H       1  ZINC000441887161    0.0700
     32 H32        -7.7290    3.5870   54.6853 H       1  ZINC000441887161    0.1200
     33 H33        -6.6126    4.1648   52.5678 H       1  ZINC000441887161    0.1200
     34 H34        -6.7562    3.2843   48.4641 H       1  ZINC000441887161    0.1100
     35 H35        -7.9222    2.1546   49.1939 H       1  ZINC000441887161    0.1000
     36 H36        -9.8459    3.1739   50.6722 H       1  ZINC000441887161    0.1700
     37 H37       -10.5127    5.6321   51.3076 H       1  ZINC000441887161    0.1600
     38 H38        -6.7252    5.8065   49.4950 H       1  ZINC000441887161    0.2000
     39 H39        -5.5612    4.5987   50.4946 H       1  ZINC000441887161    0.4200
     40 H40        -2.1073    1.0268   51.3690 H       1  ZINC000441887161    0.1300
     41 H41        -1.0365   -0.3883   49.6616 H       1  ZINC000441887161    0.1300
     42 H42        -1.7912   -0.8829   46.6825 H       1  ZINC000441887161    0.0800
     43 H43        -0.8563    0.5185   46.1078 H       1  ZINC000441887161    0.0800
     44 H44        -0.1963   -0.5271   47.3882 H       1  ZINC000441887161    0.0700
     45 H45        -3.5439    1.7055   45.7839 H       1  ZINC000441887161    0.0800
     46 H46        -2.7795    3.2885   46.0633 H       1  ZINC000441887161    0.0700
     47 H47        -1.7788    1.8803   45.6348 H       1  ZINC000441887161    0.0700
     48 H48        -3.6923    3.5292   48.3006 H       1  ZINC000441887161    0.1400
     49 H49        -6.3251   -0.6321   50.9510 H       1  ZINC000441887161    0.0800
     50 H50        -8.0974   -0.7780   50.8734 H       1  ZINC000441887161    0.0700
     51 H51        -7.2564    0.4094   49.8482 H       1  ZINC000441887161    0.0600
     52 H52        -8.4087   -0.3702   53.2470 H       1  ZINC000441887161    0.1300
@<TRIPOS>BOND
     1     1     2    1
     2     1    29    1
     3     1    30    1
     4     1    31    1
     5     2    28   ar
     6     2     3   ar
     7     3     4   ar
     8     3    32    1
     9     4     5   ar
    10     4    33    1
    11     5     6    1
    12     5    26   ar
    13     6     7    1
    14     6     8    1
    15     6    14    1
    16     8     9    1
    17     8    34    1
    18     8    35    1
    19     9    13    1
    20     9    10    1
    21    10    11    2
    22    10    36    1
    23    11    12    1
    24    11    37    1
    25    12    13    2
    26    13    38    1
    27    14    15   am
    28    14    39    1
    29    15    16    2
    30    15    17    2
    31    15    18    1
    32    18    25   ar
    33    18    19   ar
    34    19    20   ar
    35    19    40    1
    36    20    21   ar
    37    20    41    1
    38    21    22    1
    39    21    23   ar
    40    22    42    1
    41    22    43    1
    42    22    44    1
    43    23    24    1
    44    23    25   ar
    45    24    45    1
    46    24    46    1
    47    24    47    1
    48    25    48    1
    49    26    27    1
    50    26    28   ar
    51    27    49    1
    52    27    50    1
    53    27    51    1
    54    28    52    1
@<TRIPOS>SUBSTRUCTURE
     1 ZINC000441887161        1 TEMP              0 ****  ****    0 ROOT


##########                                Name:    ZINC000866717058
##########                DOCK_Rotatable_Bonds:                   7
##########                         Heavy_Atoms:                  25
##########                    Molecular_Weight:             380.388
##########                DOCK_Rotatable_Bonds:                   7
##########                       Formal_Charge:                0.04
##########                     HBond_Acceptors:                  10
##########                        HBond_Donors:                   1
##########                         Heavy_Atoms:                  25
##########                          Grid_Score:          -28.625238
##########                     Grid_vdw_energy:          -27.482565
##########                      Grid_es_energy:           -1.142674
##########           Internal_energy_repulsive:            8.413739

@<TRIPOS>MOLECULE
ZINC000866717058
 44 45 1 0 0
SMALL
USER_CHARGES


@<TRIPOS>ATOM
      1 C1         -5.6956    2.3490   55.3809 C.3     1  ZINC000866717058   -0.1100
      2 C2         -6.9331    1.5094   55.1956 C.ar    1  ZINC000866717058    0.2400
      3 N3         -7.4553    0.8811   56.2278 N.ar    1  ZINC000866717058   -0.5500
      4 C4         -8.5416    0.1323   56.1124 C.ar    1  ZINC000866717058    0.3500
      5 O5         -9.0403   -0.4937   57.2059 O.3     1  ZINC000866717058   -0.2800
      6 C6         -8.1757   -1.4112   57.8787 C.3     1  ZINC000866717058    0.0500
      7 H7         -7.2292   -1.4787   57.3424 H       1  ZINC000866717058    0.1300
      8 C8         -7.9200   -0.9188   59.3046 C.3     1  ZINC000866717058   -0.1700
      9 C9         -8.8345   -2.7913   57.9262 C.3     1  ZINC000866717058    0.4600
     10 F10        -9.9478   -2.7478   58.7722 F       1  ZINC000866717058   -0.1700
     11 F11        -9.2411   -3.1585   56.6389 F       1  ZINC000866717058   -0.1700
     12 F12        -7.9169   -3.7297   58.4108 F       1  ZINC000866717058   -0.1700
     13 C13        -9.1784   -0.0205   54.8849 C.ar    1  ZINC000866717058   -0.1900
     14 C14        -8.6662    0.6198   53.7750 C.ar    1  ZINC000866717058    0.0000
     15 C15        -7.5180    1.4097   53.9323 C.ar    1  ZINC000866717058   -0.2300
     16 C16        -6.9305    2.1160   52.7769 C.2     1  ZINC000866717058    0.5800
     17 O17        -6.9928    3.3284   52.7097 O.2     1  ZINC000866717058   -0.5200
     18 N18        -6.3250    1.4169   51.7964 N.am    1  ZINC000866717058   -0.7400
     19 C19        -5.7435    2.1179   50.6489 C.3     1  ZINC000866717058    0.1400
     20 C20        -4.3575    2.6467   51.0234 C.3     1  ZINC000866717058   -0.5700
     21 H21        -4.4200    3.3200   51.8784 H       1  ZINC000866717058    0.1500
     22 C22        -3.3823    1.4769   51.3144 C.3     1  ZINC000866717058   -0.1100
     23 C23        -1.9592    2.0495   51.1927 C.3     1  ZINC000866717058   -0.1200
     24 C24        -1.8681    2.8757   49.8944 C.3     1  ZINC000866717058   -0.5900
     25 S25        -3.5717    3.4819   49.5937 S.o2    1  ZINC000866717058    2.3700
     26 O26        -4.0681    2.9137   48.3895 O.2     1  ZINC000866717058   -0.9200
     27 O27        -3.6109    4.8896   49.7833 O.2     1  ZINC000866717058   -0.9300
     28 H28        -5.9810    3.3928   55.5119 H       1  ZINC000866717058    0.0900
     29 H29        -5.1533    2.0073   56.2625 H       1  ZINC000866717058    0.0700
     30 H30        -5.0573    2.2545   54.5023 H       1  ZINC000866717058    0.1100
     31 H31        -7.2606   -1.6187   59.8179 H       1  ZINC000866717058    0.0900
     32 H32        -7.4507    0.0643   59.2708 H       1  ZINC000866717058    0.0900
     33 H33        -8.8665   -0.8515   59.8410 H       1  ZINC000866717058    0.0800
     34 H34       -10.0635   -0.6336   54.8015 H       1  ZINC000866717058    0.1600
     35 H35        -9.1400    0.5184   52.8098 H       1  ZINC000866717058    0.1500
     36 H36        -6.2742    0.4498   51.8507 H       1  ZINC000866717058    0.4000
     37 H37        -5.6547    1.4287   49.8092 H       1  ZINC000866717058    0.1000
     38 H38        -6.3869    2.9517   50.3682 H       1  ZINC000866717058    0.1000
     39 H39        -3.5465    1.0960   52.3224 H       1  ZINC000866717058    0.1100
     40 H40        -3.5275    0.6798   50.5854 H       1  ZINC000866717058    0.0900
     41 H41        -1.7470    2.6890   52.0496 H       1  ZINC000866717058    0.0900
     42 H42        -1.2375    1.2335   51.1593 H       1  ZINC000866717058    0.1000
     43 H43        -1.1877    3.7168   50.0277 H       1  ZINC000866717058    0.1400
     44 H44        -1.5364    2.2469   49.0681 H       1  ZINC000866717058    0.1400
@<TRIPOS>BOND
     1     1     2    1
     2     1    28    1
     3     1    29    1
     4     1    30    1
     5     2    15   ar
     6     2     3   ar
     7     3     4   ar
     8     4     5    1
     9     4    13   ar
    10     5     6    1
    11     6     7    1
    12     6     8    1
    13     6     9    1
    14     8    31    1
    15     8    32    1
    16     8    33    1
    17     9    10    1
    18     9    11    1
    19     9    12    1
    20    13    14   ar
    21    13    34    1
    22    14    15   ar
    23    14    35    1
    24    15    16    1
    25    16    17    2
    26    16    18   am
    27    18    19    1
    28    18    36    1
    29    19    20    1
    30    19    37    1
    31    19    38    1
    32    20    21    1
    33    20    25    1
    34    20    22    1
    35    22    23    1
    36    22    39    1
    37    22    40    1
    38    23    24    1
    39    23    41    1
    40    23    42    1
    41    24    25    1
    42    24    43    1
    43    24    44    1
    44    25    26    2
    45    25    27    2
@<TRIPOS>SUBSTRUCTURE
     1 ZINC000866717058        1 TEMP              0 ****  ****    0 ROOT


##########                                Name:    ZINC000647468483
##########                DOCK_Rotatable_Bonds:                   5
##########                         Heavy_Atoms:                  24
##########                    Molecular_Weight:             341.373
##########                DOCK_Rotatable_Bonds:                   5
##########                       Formal_Charge:           0.0300004
##########                     HBond_Acceptors:                   6
##########                        HBond_Donors:                   2
##########                         Heavy_Atoms:                  24
##########                          Grid_Score:          -28.619921
##########                     Grid_vdw_energy:          -26.020597
##########                      Grid_es_energy:           -2.599324
##########           Internal_energy_repulsive:           19.601013

@<TRIPOS>MOLECULE
ZINC000647468483
 46 48 1 0 0
SMALL
USER_CHARGES


@<TRIPOS>ATOM
      1 O1         -8.1618    0.8463   51.4531 O.co2   1  ZINC000647468483   -0.6800
      2 C2         -6.9610    0.7538   51.2637 C.2     1  ZINC000647468483    0.5000
      3 O3         -6.4773   -0.3136   50.9270 O.co2   1  ZINC000647468483   -0.6900
      4 C4         -6.0753    1.9603   51.4396 C.3     1  ZINC000647468483   -0.1500
      5 H5         -6.5002    2.6460   52.1727 H       1  ZINC000647468483    0.0800
      6 C6         -5.8479    2.6765   50.0853 C.3     1  ZINC000647468483   -0.1100
      7 C7         -4.5226    3.4417   50.2797 C.3     1  ZINC000647468483   -0.1400
      8 C8         -3.7561    2.7157   51.3992 C.3     1  ZINC000647468483    0.0100
      9 H9         -3.5872    3.3933   52.2362 H       1  ZINC000647468483    0.1400
     10 N10        -2.4720    2.2174   50.8887 N.4     1  ZINC000647468483   -0.5000
     11 H11        -2.1667    1.4370   51.4507 H       1  ZINC000647468483    0.4200
     12 H12        -2.5838    1.9191   49.9312 H       1  ZINC000647468483    0.4300
     13 C13        -1.4699    3.2896   50.9538 C.3     1  ZINC000647468483    0.0200
     14 H14        -1.9071    4.2299   50.6182 H       1  ZINC000647468483    0.1500
     15 C15        -0.9471    3.4356   52.3936 C.3     1  ZINC000647468483   -0.1400
     16 C16         0.5697    3.1588   52.3419 C.3     1  ZINC000647468483   -0.1300
     17 C17         0.7552    2.2962   51.0689 C.3     1  ZINC000647468483   -0.1300
     18 C18        -0.2532    2.9295   50.0764 C.3     1  ZINC000647468483   -0.0600
     19 H19         0.1697    3.8261   49.6231 H       1  ZINC000647468483    0.1300
     20 C20        -0.6415    1.9352   49.0126 C.ar    1  ZINC000647468483   -0.1200
     21 C21        -0.8768    0.6164   49.3522 C.ar    1  ZINC000647468483   -0.0700
     22 C22        -1.2330   -0.2959   48.3762 C.ar    1  ZINC000647468483   -0.1000
     23 C23        -1.3542    0.1113   47.0610 C.ar    1  ZINC000647468483   -0.0600
     24 C24        -1.1196    1.4308   46.7214 C.ar    1  ZINC000647468483   -0.1600
     25 C25        -1.2513    1.8746   45.2872 C.3     1  ZINC000647468483    0.5000
     26 F26        -0.6999    3.1520   45.1419 F       1  ZINC000647468483   -0.1700
     27 F27        -0.5725    0.9763   44.4569 F       1  ZINC000647468483   -0.1700
     28 F28        -2.6040    1.9074   44.9317 F       1  ZINC000647468483   -0.1700
     29 C29        -0.7677    2.3436   47.6978 C.ar    1  ZINC000647468483   -0.1100
     30 C30        -4.6439    1.5351   51.8510 C.3     1  ZINC000647468483   -0.1200
     31 H31        -5.7534    1.9483   49.2798 H       1  ZINC000647468483    0.0800
     32 H32        -6.6626    3.3709   49.8794 H       1  ZINC000647468483    0.0800
     33 H33        -3.9421    3.4235   49.3573 H       1  ZINC000647468483    0.0700
     34 H34        -4.7255    4.4716   50.5733 H       1  ZINC000647468483    0.1000
     35 H35        -1.1298    4.4471   52.7564 H       1  ZINC000647468483    0.1000
     36 H36        -1.4369    2.7109   53.0441 H       1  ZINC000647468483    0.0900
     37 H37         1.1252    4.0925   52.2544 H       1  ZINC000647468483    0.0800
     38 H38         0.8870    2.6064   53.2265 H       1  ZINC000647468483    0.0900
     39 H39         1.7739    2.3801   50.6904 H       1  ZINC000647468483    0.0900
     40 H40         0.5002    1.2551   51.2671 H       1  ZINC000647468483    0.0800
     41 H41        -0.7821    0.2982   50.3800 H       1  ZINC000647468483    0.1400
     42 H42        -1.4162   -1.3266   48.6416 H       1  ZINC000647468483    0.1500
     43 H43        -1.6316   -0.6015   46.2985 H       1  ZINC000647468483    0.1500
     44 H44        -0.5845    3.3743   47.4325 H       1  ZINC000647468483    0.1400
     45 H45        -4.5766    1.3983   52.9302 H       1  ZINC000647468483    0.0900
     46 H46        -4.3567    0.6211   51.3310 H       1  ZINC000647468483    0.1000
@<TRIPOS>BOND
     1     1     2   ar
     2     2     3   ar
     3     2     4    1
     4     4     5    1
     5     4    30    1
     6     4     6    1
     7     6     7    1
     8     6    31    1
     9     6    32    1
    10     7     8    1
    11     7    33    1
    12     7    34    1
    13     8     9    1
    14     8    10    1
    15     8    30    1
    16    10    11    1
    17    10    12    1
    18    10    13    1
    19    13    14    1
    20    13    18    1
    21    13    15    1
    22    15    16    1
    23    15    35    1
    24    15    36    1
    25    16    17    1
    26    16    37    1
    27    16    38    1
    28    17    18    1
    29    17    39    1
    30    17    40    1
    31    18    19    1
    32    18    20    1
    33    20    29   ar
    34    20    21   ar
    35    21    22   ar
    36    21    41    1
    37    22    23   ar
    38    22    42    1
    39    23    24   ar
    40    23    43    1
    41    24    25    1
    42    24    29   ar
    43    25    26    1
    44    25    27    1
    45    25    28    1
    46    29    44    1
    47    30    45    1
    48    30    46    1
@<TRIPOS>SUBSTRUCTURE
     1 ZINC000647468483        1 TEMP              0 ****  ****    0 ROOT


##########                                Name:    ZINC000962855438
##########                DOCK_Rotatable_Bonds:                   7
##########                         Heavy_Atoms:                  27
##########                    Molecular_Weight:             370.448
##########                DOCK_Rotatable_Bonds:                   7
##########                       Formal_Charge:           0.0300005
##########                     HBond_Acceptors:                   6
##########                        HBond_Donors:                   2
##########                         Heavy_Atoms:                  27
##########                          Grid_Score:          -28.614658
##########                     Grid_vdw_energy:          -28.043095
##########                      Grid_es_energy:           -0.571563
##########           Internal_energy_repulsive:           10.940961

@<TRIPOS>MOLECULE
ZINC000962855438
 53 56 1 0 0
SMALL
USER_CHARGES


@<TRIPOS>ATOM
      1 C1        -15.5714    0.0319   59.0707 C.3     1  ZINC000962855438   -0.1100
      2 C2        -14.7269   -0.8975   58.2375 C.2     1  ZINC000962855438   -0.1700
      3 C3        -13.4209   -1.3525   58.7385 C.2     1  ZINC000962855438    0.5600
      4 O4        -13.0956   -1.1199   59.8870 O.2     1  ZINC000962855438   -0.5400
      5 N5        -12.5847   -2.0271   57.9247 N.am    1  ZINC000962855438   -0.7100
      6 C6        -11.2833   -2.4788   58.4232 C.3     1  ZINC000962855438    0.1500
      7 H7        -11.3700   -2.8703   59.4367 H       1  ZINC000962855438    0.1200
      8 C8        -10.2369   -1.3386   58.3559 C.3     1  ZINC000962855438    0.1000
      9 N9         -8.9348   -2.0256   58.2777 N.am    1  ZINC000962855438   -0.6100
     10 C10        -7.7489   -1.5063   58.6526 C.2     1  ZINC000962855438    0.5800
     11 O11        -6.7341   -2.1671   58.5437 O.2     1  ZINC000962855438   -0.5200
     12 C12        -7.6823   -0.1360   59.1954 C.ar    1  ZINC000962855438   -0.1500
     13 C13        -8.0445    0.1091   60.5199 C.ar    1  ZINC000962855438   -0.0600
     14 C14        -7.9841    1.3883   61.0295 C.ar    1  ZINC000962855438   -0.1500
     15 C15        -7.5660    2.4356   60.2238 C.ar    1  ZINC000962855438   -0.0500
     16 C16        -7.2089    2.2054   58.9140 C.ar    1  ZINC000962855438   -0.1800
     17 C17        -7.2478    0.9245   58.3796 C.ar    1  ZINC000962855438    0.1600
     18 O18        -6.8365    0.9170   57.0848 O.3     1  ZINC000962855438   -0.2800
     19 C19        -6.9222    2.2497   56.5522 C.3     1  ZINC000962855438    0.0700
     20 H20        -7.8980    2.4223   56.0982 H       1  ZINC000962855438    0.0900
     21 C21        -5.8033    2.5020   55.5397 C.3     1  ZINC000962855438   -0.1500
     22 C22        -6.7335    3.1318   57.8111 C.3     1  ZINC000962855438   -0.1100
     23 C23        -9.1442   -3.3712   57.7237 C.3     1  ZINC000962855438    0.0700
     24 C24       -10.6586   -3.5329   57.4714 C.3     1  ZINC000962855438    0.0900
     25 H25       -10.9887   -4.5373   57.7366 H       1  ZINC000962855438    0.0900
     26 O26       -10.9781   -3.2408   56.1095 O.3     1  ZINC000962855438   -0.5600
     27 C27       -15.1626   -1.3064   57.0493 C.2     1  ZINC000962855438   -0.0600
     28 C28       -16.3934   -1.0797   56.1971 C.3     1  ZINC000962855438   -0.1000
     29 C29       -16.1161   -2.4486   55.5561 C.3     1  ZINC000962855438   -0.1400
     30 C30       -14.6464   -2.2009   55.9423 C.3     1  ZINC000962855438   -0.1100
     31 H31       -15.3228    1.0649   58.8274 H       1  ZINC000962855438    0.0700
     32 H32       -16.6256   -0.1476   58.8594 H       1  ZINC000962855438    0.0700
     33 H33       -15.3766   -0.1495   60.1277 H       1  ZINC000962855438    0.0700
     34 H34       -12.8447   -2.2136   57.0090 H       1  ZINC000962855438    0.4100
     35 H35       -10.3976   -0.7280   57.4674 H       1  ZINC000962855438    0.0800
     36 H36       -10.2877   -0.7234   59.2542 H       1  ZINC000962855438    0.0900
     37 H37        -8.3734   -0.7057   61.1478 H       1  ZINC000962855438    0.1400
     38 H38        -8.2628    1.5745   62.0562 H       1  ZINC000962855438    0.1400
     39 H39        -7.5205    3.4373   60.6250 H       1  ZINC000962855438    0.1300
     40 H40        -5.9033    1.8063   54.7066 H       1  ZINC000962855438    0.0700
     41 H41        -5.8724    3.5248   55.1692 H       1  ZINC000962855438    0.0800
     42 H42        -4.8369    2.3549   56.0219 H       1  ZINC000962855438    0.0700
     43 H43        -7.3587    4.0230   57.7596 H       1  ZINC000962855438    0.1000
     44 H44        -5.6855    3.3999   57.9453 H       1  ZINC000962855438    0.1000
     45 H45        -8.5986   -3.4751   56.7858 H       1  ZINC000962855438    0.0800
     46 H46        -8.8056   -4.1226   58.4370 H       1  ZINC000962855438    0.0800
     47 H47       -10.6996   -2.3613   55.8200 H       1  ZINC000962855438    0.3900
     48 H48       -17.3201   -1.0467   56.7702 H       1  ZINC000962855438    0.0900
     49 H49       -16.2950   -0.2454   55.5027 H       1  ZINC000962855438    0.1000
     50 H50       -16.5792   -3.2832   56.0824 H       1  ZINC000962855438    0.0900
     51 H51       -16.2879   -2.4737   54.4800 H       1  ZINC000962855438    0.0800
     52 H52       -14.0783   -1.6711   55.1776 H       1  ZINC000962855438    0.1000
     53 H53       -14.1359   -3.0919   56.3078 H       1  ZINC000962855438    0.0800
@<TRIPOS>BOND
     1     1     2    1
     2     1    31    1
     3     1    32    1
     4     1    33    1
     5     2     3    1
     6     2    27    2
     7     3     4    2
     8     3     5   am
     9     5     6    1
    10     5    34    1
    11     6     7    1
    12     6    24    1
    13     6     8    1
    14     8     9    1
    15     8    35    1
    16     8    36    1
    17     9    10   am
    18     9    23    1
    19    10    11    2
    20    10    12    1
    21    12    17   ar
    22    12    13   ar
    23    13    14   ar
    24    13    37    1
    25    14    15   ar
    26    14    38    1
    27    15    16   ar
    28    15    39    1
    29    16    22    1
    30    16    17   ar
    31    17    18    1
    32    18    19    1
    33    19    20    1
    34    19    21    1
    35    19    22    1
    36    21    40    1
    37    21    41    1
    38    21    42    1
    39    22    43    1
    40    22    44    1
    41    23    24    1
    42    23    45    1
    43    23    46    1
    44    24    25    1
    45    24    26    1
    46    26    47    1
    47    27    30    1
    48    27    28    1
    49    28    29    1
    50    28    48    1
    51    28    49    1
    52    29    30    1
    53    29    50    1
    54    29    51    1
    55    30    52    1
    56    30    53    1
@<TRIPOS>SUBSTRUCTURE
     1 ZINC000962855438        1 TEMP              0 ****  ****    0 ROOT


##########                                Name:    ZINC000646817380
##########                DOCK_Rotatable_Bonds:                   6
##########                         Heavy_Atoms:                  25
##########                    Molecular_Weight:             347.457
##########                DOCK_Rotatable_Bonds:                   6
##########                       Formal_Charge:           0.0199991
##########                     HBond_Acceptors:                   6
##########                        HBond_Donors:                   1
##########                         Heavy_Atoms:                  25
##########                          Grid_Score:          -28.579908
##########                     Grid_vdw_energy:          -27.796703
##########                      Grid_es_energy:           -0.783205
##########           Internal_energy_repulsive:           53.595142

@<TRIPOS>MOLECULE
ZINC000646817380
 54 56 1 0 0
SMALL
USER_CHARGES


@<TRIPOS>ATOM
      1 C1        -11.7000    7.4687   48.0808 C.3     1  ZINC000646817380   -0.1500
      2 C2        -10.6701    6.6082   47.3462 C.3     1  ZINC000646817380   -0.0100
      3 C3         -9.5531    7.5017   46.8032 C.3     1  ZINC000646817380   -0.1500
      4 C4        -10.0865    5.5985   48.3009 C.2     1  ZINC000646817380   -0.0100
      5 C5         -8.9972    5.7637   49.0852 C.2     1  ZINC000646817380   -0.2200
      6 C6         -8.8830    4.5283   49.7771 C.2     1  ZINC000646817380    0.2400
      7 N7         -7.9132    4.1818   50.7161 N.am    1  ZINC000646817380   -0.6100
      8 C8         -7.0658    3.1642   50.4655 C.2     1  ZINC000646817380    0.5200
      9 O9         -7.1463    2.5504   49.4217 O.2     1  ZINC000646817380   -0.4900
     10 C10        -6.0275    2.7916   51.4727 C.2     1  ZINC000646817380    0.5300
     11 O11        -6.3061    2.7753   52.6537 O.2     1  ZINC000646817380   -0.5100
     12 N12        -4.7813    2.4736   51.0699 N.am    1  ZINC000646817380   -0.5800
     13 C13        -3.6680    2.0901   51.9502 C.3     1  ZINC000646817380    0.1000
     14 C14        -2.4375    1.8437   51.0519 C.3     1  ZINC000646817380   -0.1300
     15 C15        -2.7756    2.6504   49.7705 C.3     1  ZINC000646817380   -0.1000
     16 H16        -2.5251    3.7040   49.8946 H       1  ZINC000646817380    0.1000
     17 C17        -2.0672    2.0616   48.5489 C.3     1  ZINC000646817380   -0.0700
     18 H18        -1.9332    0.9875   48.6770 H       1  ZINC000646817380    0.0800
     19 C19        -2.8895    2.3433   47.2744 C.3     1  ZINC000646817380   -0.1300
     20 C20        -1.8219    2.6216   46.1873 C.3     1  ZINC000646817380   -0.1300
     21 C21        -0.7430    3.4169   46.9635 C.3     1  ZINC000646817380   -0.1200
     22 C22        -0.7018    2.7433   48.3519 C.3     1  ZINC000646817380   -0.0700
     23 C23        -0.4804    3.7969   49.4391 C.3     1  ZINC000646817380   -0.1600
     24 C24         0.4173    1.7009   48.3957 C.3     1  ZINC000646817380   -0.1400
     25 C25        -4.3104    2.4467   49.6731 C.3     1  ZINC000646817380    0.0900
     26 N26        -9.8705    3.7818   49.3565 N.2     1  ZINC000646817380   -0.3800
     27 O27       -10.5494    4.3636   48.5424 O.3     1  ZINC000646817380    0.1100
     28 H28       -12.1221    8.1989   47.3903 H       1  ZINC000646817380    0.0700
     29 H29       -12.4957    6.8322   48.4677 H       1  ZINC000646817380    0.0600
     30 H30       -11.2158    7.9882   48.9078 H       1  ZINC000646817380    0.0600
     31 H31       -11.1542    6.0887   46.5192 H       1  ZINC000646817380    0.1100
     32 H32        -9.0689    8.0211   47.6302 H       1  ZINC000646817380    0.0600
     33 H33        -8.8194    6.8886   46.2799 H       1  ZINC000646817380    0.0600
     34 H34        -9.9752    8.2319   46.1128 H       1  ZINC000646817380    0.0700
     35 H35        -8.3615    6.6330   49.1665 H       1  ZINC000646817380    0.1900
     36 H36        -7.8480    4.6731   51.5499 H       1  ZINC000646817380    0.4300
     37 H37        -3.4577    2.8951   52.6543 H       1  ZINC000646817380    0.0800
     38 H38        -3.9205    1.1781   52.4912 H       1  ZINC000646817380    0.0800
     39 H39        -1.5330    2.2289   51.5228 H       1  ZINC000646817380    0.0900
     40 H40        -2.3329    0.7830   50.8235 H       1  ZINC000646817380    0.0800
     41 H41        -3.4886    1.4729   47.0068 H       1  ZINC000646817380    0.0700
     42 H42        -3.5261    3.2167   47.4164 H       1  ZINC000646817380    0.0800
     43 H43        -1.4112    1.6886   45.8014 H       1  ZINC000646817380    0.0700
     44 H44        -2.2399    3.2238   45.3805 H       1  ZINC000646817380    0.0700
     45 H45         0.2246    3.3299   46.4689 H       1  ZINC000646817380    0.0700
     46 H46        -1.0328    4.4637   47.0553 H       1  ZINC000646817380    0.0700
     47 H47        -1.0396    4.6988   49.1902 H       1  ZINC000646817380    0.0700
     48 H48        -0.8255    3.4082   50.3972 H       1  ZINC000646817380    0.0600
     49 H49         0.5815    4.0340   49.5044 H       1  ZINC000646817380    0.0500
     50 H50         1.3768    2.1907   48.2304 H       1  ZINC000646817380    0.0600
     51 H51         0.4215    1.2132   49.3705 H       1  ZINC000646817380    0.0500
     52 H52         0.2507    0.9561   47.6176 H       1  ZINC000646817380    0.0600
     53 H53        -4.5369    1.4867   49.2093 H       1  ZINC000646817380    0.0900
     54 H54        -4.7657    3.2592   49.1070 H       1  ZINC000646817380    0.1000
@<TRIPOS>BOND
     1     1     2    1
     2     1    28    1
     3     1    29    1
     4     1    30    1
     5     2     3    1
     6     2     4    1
     7     2    31    1
     8     3    32    1
     9     3    33    1
    10     3    34    1
    11     4    27    1
    12     4     5    2
    13     5     6    1
    14     5    35    1
    15     6     7    1
    16     6    26    2
    17     7     8   am
    18     7    36    1
    19     8     9    2
    20     8    10    1
    21    10    11    2
    22    10    12   am
    23    12    25    1
    24    12    13    1
    25    13    14    1
    26    13    37    1
    27    13    38    1
    28    14    15    1
    29    14    39    1
    30    14    40    1
    31    15    16    1
    32    15    17    1
    33    15    25    1
    34    17    18    1
    35    17    22    1
    36    17    19    1
    37    19    20    1
    38    19    41    1
    39    19    42    1
    40    20    21    1
    41    20    43    1
    42    20    44    1
    43    21    22    1
    44    21    45    1
    45    21    46    1
    46    22    23    1
    47    22    24    1
    48    23    47    1
    49    23    48    1
    50    23    49    1
    51    24    50    1
    52    24    51    1
    53    24    52    1
    54    25    53    1
    55    25    54    1
    56    26    27    1
@<TRIPOS>SUBSTRUCTURE
     1 ZINC000646817380        1 TEMP              0 ****  ****    0 ROOT


##########                                Name:    ZINC000952280524
##########                DOCK_Rotatable_Bonds:                   9
##########                         Heavy_Atoms:                  25
##########                    Molecular_Weight:             348.486
##########                DOCK_Rotatable_Bonds:                   9
##########                       Formal_Charge:          -0.0100004
##########                     HBond_Acceptors:                   5
##########                        HBond_Donors:                   1
##########                         Heavy_Atoms:                  25
##########                          Grid_Score:          -28.565948
##########                     Grid_vdw_energy:          -28.808397
##########                      Grid_es_energy:            0.242449
##########           Internal_energy_repulsive:           20.724833

@<TRIPOS>MOLECULE
ZINC000952280524
 57 59 1 0 0
SMALL
USER_CHARGES


@<TRIPOS>ATOM
      1 C1        -11.7821   -0.2815   53.8805 C.3     1  ZINC000952280524   -0.1800
      2 C2        -11.0454    1.0072   53.5099 C.3     1  ZINC000952280524    0.1400
      3 C3        -12.0004    2.1956   53.6380 C.3     1  ZINC000952280524   -0.1900
      4 O4         -9.9352    1.1913   54.3906 O.3     1  ZINC000952280524   -0.5500
      5 C5        -10.5422    0.9104   52.0682 C.3     1  ZINC000952280524   -0.1200
      6 C6         -9.0706    0.5854   52.0706 C.2     1  ZINC000952280524    0.5300
      7 O7         -8.6904   -0.5018   52.4507 O.2     1  ZINC000952280524   -0.5100
      8 N8         -8.1772    1.5028   51.6504 N.am    1  ZINC000952280524   -0.6300
      9 C9         -8.4990    2.8532   51.1660 C.3     1  ZINC000952280524    0.1000
     10 C10        -7.1680    3.5283   50.7734 C.3     1  ZINC000952280524   -0.1300
     11 C11        -6.2255    2.3208   50.5262 C.3     1  ZINC000952280524   -0.1000
     12 H12        -6.3634    1.9165   49.5234 H       1  ZINC000952280524    0.0900
     13 C13        -4.7643    2.7085   50.7619 C.3     1  ZINC000952280524   -0.0700
     14 C14        -3.8950    1.4490   50.7537 C.3     1  ZINC000952280524   -0.1300
     15 C15        -2.4380    1.8372   51.0243 C.3     1  ZINC000952280524    0.1100
     16 N16        -2.0313    2.8575   50.0483 N.am    1  ZINC000952280524   -0.6100
     17 C17        -0.9281    2.6846   49.2936 C.2     1  ZINC000952280524    0.5500
     18 O18        -0.2587    1.6768   49.4169 O.2     1  ZINC000952280524   -0.5500
     19 C19        -0.5338    3.7151   48.3207 C.2     1  ZINC000952280524   -0.2200
     20 C20        -0.6987    3.4984   47.0189 C.2     1  ZINC000952280524   -0.0300
     21 C21        -1.2880    2.1965   46.5405 C.3     1  ZINC000952280524   -0.1500
     22 C22        -2.4308    2.2689   45.5259 C.3     1  ZINC000952280524   -0.1700
     23 C23        -1.0425    1.8035   45.0823 C.3     1  ZINC000952280524   -0.1600
     24 C24        -2.8505    4.0694   49.9104 C.3     1  ZINC000952280524    0.1000
     25 C25        -4.3028    3.6561   49.6522 C.3     1  ZINC000952280524   -0.1300
     26 C26        -6.7149    1.3207   51.6063 C.3     1  ZINC000952280524    0.1100
     27 H27       -12.6780   -0.3771   53.2670 H       1  ZINC000952280524    0.0700
     28 H28       -11.1291   -1.1365   53.7055 H       1  ZINC000952280524    0.0600
     29 H29       -12.0643   -0.2489   54.9328 H       1  ZINC000952280524    0.0600
     30 H30       -12.3589    2.2646   54.6650 H       1  ZINC000952280524    0.0600
     31 H31       -11.4756    3.1137   53.3740 H       1  ZINC000952280524    0.0800
     32 H32       -12.8473    2.0552   52.9662 H       1  ZINC000952280524    0.0600
     33 H33        -9.3056    0.4574   54.3886 H       1  ZINC000952280524    0.3700
     34 H34       -11.0870    0.1245   51.5453 H       1  ZINC000952280524    0.1000
     35 H35       -10.7031    1.8625   51.5626 H       1  ZINC000952280524    0.1000
     36 H36        -9.1528    2.7889   50.2963 H       1  ZINC000952280524    0.0700
     37 H37        -8.9854    3.4244   51.9567 H       1  ZINC000952280524    0.0700
     38 H38        -7.2877    4.1167   49.8636 H       1  ZINC000952280524    0.0800
     39 H39        -6.7948    4.1482   51.5886 H       1  ZINC000952280524    0.0800
     40 H40        -4.6719    3.2070   51.7268 H       1  ZINC000952280524    0.0800
     41 H41        -4.2391    0.7644   51.5289 H       1  ZINC000952280524    0.0800
     42 H42        -3.9673    0.9633   49.7805 H       1  ZINC000952280524    0.0700
     43 H43        -2.3486    2.2404   52.0331 H       1  ZINC000952280524    0.0700
     44 H44        -1.8007    0.9589   50.9218 H       1  ZINC000952280524    0.0900
     45 H45        -0.1103    4.6475   48.6635 H       1  ZINC000952280524    0.1300
     46 H46        -0.4104    4.2555   46.3047 H       1  ZINC000952280524    0.1300
     47 H47        -1.3201    1.3955   47.2791 H       1  ZINC000952280524    0.1200
     48 H48        -3.2153    1.5155   45.5969 H       1  ZINC000952280524    0.1000
     49 H49        -2.7565    3.2581   45.2045 H       1  ZINC000952280524    0.1000
     50 H50        -0.4548    2.4866   44.4691 H       1  ZINC000952280524    0.1000
     51 H51        -0.9135    0.7439   44.8616 H       1  ZINC000952280524    0.1000
     52 H52        -2.7947    4.6545   50.8282 H       1  ZINC000952280524    0.0700
     53 H53        -2.4854    4.6638   49.0728 H       1  ZINC000952280524    0.0900
     54 H54        -4.3714    3.1496   48.6895 H       1  ZINC000952280524    0.0700
     55 H55        -4.9372    4.5424   49.6435 H       1  ZINC000952280524    0.0800
     56 H56        -6.2686    1.5571   52.5722 H       1  ZINC000952280524    0.0700
     57 H57        -6.4718    0.2989   51.3151 H       1  ZINC000952280524    0.0800
@<TRIPOS>BOND
     1     1     2    1
     2     1    27    1
     3     1    28    1
     4     1    29    1
     5     2     3    1
     6     2     4    1
     7     2     5    1
     8     3    30    1
     9     3    31    1
    10     3    32    1
    11     4    33    1
    12     5     6    1
    13     5    34    1
    14     5    35    1
    15     6     7    2
    16     6     8   am
    17     8    26    1
    18     8     9    1
    19     9    10    1
    20     9    36    1
    21     9    37    1
    22    10    11    1
    23    10    38    1
    24    10    39    1
    25    11    12    1
    26    11    13    1
    27    11    26    1
    28    13    25    1
    29    13    14    1
    30    13    40    1
    31    14    15    1
    32    14    41    1
    33    14    42    1
    34    15    16    1
    35    15    43    1
    36    15    44    1
    37    16    17   am
    38    16    24    1
    39    17    18    2
    40    17    19    1
    41    19    20    2
    42    19    45    1
    43    20    21    1
    44    20    46    1
    45    21    23    1
    46    21    22    1
    47    21    47    1
    48    22    23    1
    49    22    48    1
    50    22    49    1
    51    23    50    1
    52    23    51    1
    53    24    25    1
    54    24    52    1
    55    24    53    1
    56    25    54    1
    57    25    55    1
    58    26    56    1
    59    26    57    1
@<TRIPOS>SUBSTRUCTURE
     1 ZINC000952280524        1 TEMP              0 ****  ****    0 ROOT


##########                                Name:    ZINC001064463188
##########                DOCK_Rotatable_Bonds:                   6
##########                         Heavy_Atoms:                  25
##########                    Molecular_Weight:             342.441
##########                DOCK_Rotatable_Bonds:                   6
##########                       Formal_Charge:          -0.0100004
##########                     HBond_Acceptors:                   6
##########                        HBond_Donors:                   0
##########                         Heavy_Atoms:                  25
##########                          Grid_Score:          -28.562811
##########                     Grid_vdw_energy:          -27.643347
##########                      Grid_es_energy:           -0.919465
##########           Internal_energy_repulsive:           16.255947

@<TRIPOS>MOLECULE
ZINC001064463188
 51 54 1 0 0
SMALL
USER_CHARGES


@<TRIPOS>ATOM
      1 C1         -7.0105    1.8014   49.9909 C.3     1  ZINC001064463188    0.0400
      2 O2         -6.7710    3.0903   50.5596 O.3     1  ZINC001064463188   -0.3000
      3 C3         -5.5649    3.6570   50.3132 C.ar    1  ZINC001064463188    0.3900
      4 C4         -5.3342    4.9944   50.6312 C.ar    1  ZINC001064463188   -0.2800
      5 C5         -4.0890    5.5312   50.3625 C.ar    1  ZINC001064463188    0.2000
      6 N6         -3.1581    4.7649   49.8147 N.ar    1  ZINC001064463188   -0.5800
      7 C7         -3.4062    3.4965   49.5232 C.ar    1  ZINC001064463188    0.5300
      8 N8         -2.4075    2.7274   48.9519 N.3     1  ZINC001064463188   -0.4500
      9 C9         -2.0906    1.5737   49.7906 C.3     1  ZINC001064463188    0.0700
     10 C10        -0.5713    1.3887   49.8824 C.3     1  ZINC001064463188   -0.1200
     11 C11         0.0346    0.9881   48.5509 C.3     1  ZINC001064463188    0.1400
     12 H12         1.1189    0.9230   48.6408 H       1  ZINC001064463188    0.0900
     13 C13        -0.5282   -0.3449   48.0533 C.3     1  ZINC001064463188   -0.1300
     14 C14        -1.7642    0.0508   47.2263 C.3     1  ZINC001064463188   -0.1300
     15 C15        -1.5985    1.5486   46.9470 C.3     1  ZINC001064463188    0.1200
     16 H16        -1.5751    1.7215   45.8711 H       1  ZINC001064463188    0.0900
     17 C17        -2.7665    2.3335   47.5640 C.3     1  ZINC001064463188    0.0600
     18 N18        -0.3312    2.0367   47.5539 N.am    1  ZINC001064463188   -0.6000
     19 C19         0.3303    3.1743   47.2626 C.2     1  ZINC001064463188    0.5800
     20 O20         1.3620    3.4443   47.8470 O.2     1  ZINC001064463188   -0.5400
     21 C21        -0.1958    4.0892   46.2378 C.2     1  ZINC001064463188   -0.2200
     22 C22         0.1196    3.9071   44.9588 C.2     1  ZINC001064463188    0.0000
     23 C23         1.0158    2.7633   44.5592 C.3     1  ZINC001064463188   -0.1300
     24 C24        -0.4193    4.8444   43.9089 C.3     1  ZINC001064463188   -0.1200
     25 C25         0.3050    6.1778   43.7136 C.3     1  ZINC001064463188   -0.1900
     26 C26         0.4360    5.0748   42.6614 C.3     1  ZINC001064463188   -0.1600
     27 N27        -4.5847    2.9446   49.7707 N.ar    1  ZINC001064463188   -0.5900
     28 H28        -6.2719    1.0944   50.3691 H       1  ZINC001064463188    0.0600
     29 H29        -8.0101    1.4636   50.2643 H       1  ZINC001064463188    0.1000
     30 H30        -6.9320    1.8628   48.9054 H       1  ZINC001064463188    0.0600
     31 H31        -6.1110    5.5978   51.0772 H       1  ZINC001064463188    0.1500
     32 H32        -3.8778    6.5642   50.5963 H       1  ZINC001064463188    0.1800
     33 H33        -2.4965    1.7312   50.7899 H       1  ZINC001064463188    0.0800
     34 H34        -2.5381    0.6789   49.3581 H       1  ZINC001064463188    0.0600
     35 H35        -0.1195    2.3249   50.2101 H       1  ZINC001064463188    0.0800
     36 H36        -0.3525    0.6149   50.6184 H       1  ZINC001064463188    0.0800
     37 H37         0.2019   -0.8569   47.4267 H       1  ZINC001064463188    0.0800
     38 H38        -0.8180   -0.9742   48.8948 H       1  ZINC001064463188    0.0900
     39 H39        -1.7877   -0.5079   46.2907 H       1  ZINC001064463188    0.0800
     40 H40        -2.6748   -0.1288   47.7978 H       1  ZINC001064463188    0.0800
     41 H41        -3.6538    1.7013   47.5982 H       1  ZINC001064463188    0.0700
     42 H42        -2.9698    3.2190   46.9618 H       1  ZINC001064463188    0.0900
     43 H43        -0.8381    4.9089   46.5243 H       1  ZINC001064463188    0.1200
     44 H44         0.4087    1.8834   44.3459 H       1  ZINC001064463188    0.0800
     45 H45         1.5815    3.0388   43.6692 H       1  ZINC001064463188    0.0800
     46 H46         1.7053    2.5403   45.3735 H       1  ZINC001064463188    0.0700
     47 H47        -1.5020    4.8361   43.7825 H       1  ZINC001064463188    0.1400
     48 H48        -0.3011    7.0471   43.4587 H       1  ZINC001064463188    0.1000
     49 H49         1.1713    6.3771   44.3443 H       1  ZINC001064463188    0.1000
     50 H50         1.3884    4.5485   42.6000 H       1  ZINC001064463188    0.0900
     51 H51        -0.0839    5.2185   41.7143 H       1  ZINC001064463188    0.1000
@<TRIPOS>BOND
     1     1     2    1
     2     1    28    1
     3     1    29    1
     4     1    30    1
     5     2     3    1
     6     3    27   ar
     7     3     4   ar
     8     4     5   ar
     9     4    31    1
    10     5     6   ar
    11     5    32    1
    12     6     7   ar
    13     7     8    1
    14     7    27   ar
    15     8    17    1
    16     8     9    1
    17     9    10    1
    18     9    33    1
    19     9    34    1
    20    10    11    1
    21    10    35    1
    22    10    36    1
    23    11    12    1
    24    11    18    1
    25    11    13    1
    26    13    14    1
    27    13    37    1
    28    13    38    1
    29    14    15    1
    30    14    39    1
    31    14    40    1
    32    15    16    1
    33    15    17    1
    34    15    18    1
    35    17    41    1
    36    17    42    1
    37    18    19   am
    38    19    20    2
    39    19    21    1
    40    21    22    2
    41    21    43    1
    42    22    23    1
    43    22    24    1
    44    23    44    1
    45    23    45    1
    46    23    46    1
    47    24    26    1
    48    24    25    1
    49    24    47    1
    50    25    26    1
    51    25    48    1
    52    25    49    1
    53    26    50    1
    54    26    51    1
@<TRIPOS>SUBSTRUCTURE
     1 ZINC001064463188        1 TEMP              0 ****  ****    0 ROOT


##########                                Name:    ZINC000506388363
##########                DOCK_Rotatable_Bonds:                   5
##########                         Heavy_Atoms:                  29
##########                    Molecular_Weight:             416.858
##########                DOCK_Rotatable_Bonds:                   5
##########                       Formal_Charge:         7.07805e-07
##########                     HBond_Acceptors:                   8
##########                        HBond_Donors:                   1
##########                         Heavy_Atoms:                  29
##########                          Grid_Score:          -28.549971
##########                     Grid_vdw_energy:          -28.827728
##########                      Grid_es_energy:            0.277757
##########           Internal_energy_repulsive:           19.511265

@<TRIPOS>MOLECULE
ZINC000506388363
 48 51 1 0 0
SMALL
USER_CHARGES


@<TRIPOS>ATOM
      1 O1         -8.3081    3.7243   61.0620 O.2     1  ZINC000506388363   -0.5300
      2 C2         -8.4445    2.5608   61.3865 C.2     1  ZINC000506388363    0.5600
      3 C3         -9.1485    2.2211   62.6415 C.ar    1  ZINC000506388363   -0.1200
      4 C4        -10.4325    2.7132   62.8799 C.ar    1  ZINC000506388363   -0.0900
      5 C5        -11.0849    2.3924   64.0527 C.ar    1  ZINC000506388363   -0.1100
      6 C6        -10.4690    1.5852   64.9920 C.ar    1  ZINC000506388363   -0.0900
      7 C7         -9.1950    1.0934   64.7623 C.ar    1  ZINC000506388363   -0.0400
      8 Cl8        -8.4306    0.0806   65.9470 Cl      1  ZINC000506388363   -0.0600
      9 C9         -8.5340    1.4023   63.5902 C.ar    1  ZINC000506388363   -0.0600
     10 N10        -7.9588    1.5803   60.5996 N.am    1  ZINC000506388363   -0.6100
     11 C11        -8.1236    0.1658   60.9675 C.3     1  ZINC000506388363    0.1000
     12 C12        -8.7154   -0.5832   59.7687 C.3     1  ZINC000506388363    0.0400
     13 N13        -7.8804   -0.3426   58.5843 N.3     1  ZINC000506388363   -0.5300
     14 C14        -8.3136   -1.1780   57.4564 C.3     1  ZINC000506388363    0.1200
     15 C15        -8.4051   -2.6148   57.9016 C.2     1  ZINC000506388363   -0.2100
     16 C16        -7.3663   -3.4588   58.0846 C.2     1  ZINC000506388363    0.0600
     17 N17        -7.8619   -4.6497   58.4837 N.pl3   1  ZINC000506388363   -0.4700
     18 N18        -9.2568   -4.5412   58.5508 N.2     1  ZINC000506388363   -0.2700
     19 C19        -9.5888   -3.3148   58.2068 C.2     1  ZINC000506388363    0.1300
     20 C20       -10.9672   -2.7692   58.1416 C.ar    1  ZINC000506388363   -0.0700
     21 C21       -11.6691   -2.4967   59.3160 C.ar    1  ZINC000506388363    0.1500
     22 F22       -11.0952   -2.7283   60.5169 F       1  ZINC000506388363   -0.1200
     23 C23       -12.9531   -1.9885   59.2482 C.ar    1  ZINC000506388363   -0.1600
     24 C24       -13.5418   -1.7503   58.0198 C.ar    1  ZINC000506388363   -0.0500
     25 C25       -12.8516   -2.0184   56.8518 C.ar    1  ZINC000506388363   -0.1600
     26 C26       -11.5648   -2.5213   56.9056 C.ar    1  ZINC000506388363    0.1600
     27 F27       -10.8917   -2.7827   55.7638 F       1  ZINC000506388363   -0.1200
     28 C28        -7.8761    1.0793   58.2152 C.3     1  ZINC000506388363    0.0400
     29 C29        -7.2554    1.8963   59.3472 C.3     1  ZINC000506388363    0.1200
     30 H30       -10.9145    3.3443   62.1478 H       1  ZINC000506388363    0.1400
     31 H31       -12.0785    2.7729   64.2378 H       1  ZINC000506388363    0.1400
     32 H32       -10.9838    1.3379   65.9087 H       1  ZINC000506388363    0.1400
     33 H33        -7.5406    1.0181   63.4115 H       1  ZINC000506388363    0.1400
     34 H34        -7.1540   -0.2612   61.2236 H       1  ZINC000506388363    0.0800
     35 H35        -8.7989    0.0853   61.8193 H       1  ZINC000506388363    0.1000
     36 H36        -8.7418   -1.6513   59.9842 H       1  ZINC000506388363    0.0900
     37 H37        -9.7272   -0.2247   59.5793 H       1  ZINC000506388363    0.0400
     38 H38        -9.2908   -0.8421   57.1097 H       1  ZINC000506388363    0.1000
     39 H39        -7.5915   -1.0946   56.6442 H       1  ZINC000506388363    0.0400
     40 H40        -6.3228   -3.2225   57.9372 H       1  ZINC000506388363    0.1800
     41 H41        -7.3423   -5.4429   58.6881 H       1  ZINC000506388363    0.4400
     42 H42       -13.4977   -1.7773   60.1567 H       1  ZINC000506388363    0.1500
     43 H43       -14.5452   -1.3536   57.9722 H       1  ZINC000506388363    0.1500
     44 H44       -13.3171   -1.8305   55.8956 H       1  ZINC000506388363    0.1500
     45 H45        -7.2940    1.2168   57.3040 H       1  ZINC000506388363    0.0900
     46 H46        -8.8996    1.4146   58.0475 H       1  ZINC000506388363    0.0400
     47 H47        -7.3539    2.9594   59.1282 H       1  ZINC000506388363    0.1000
     48 H48        -6.2016    1.6370   59.4507 H       1  ZINC000506388363    0.0800
@<TRIPOS>BOND
     1     1     2    2
     2     2     3    1
     3     2    10   am
     4     3     9   ar
     5     3     4   ar
     6     4     5   ar
     7     4    30    1
     8     5     6   ar
     9     5    31    1
    10     6     7   ar
    11     6    32    1
    12     7     8    1
    13     7     9   ar
    14     9    33    1
    15    10    29    1
    16    10    11    1
    17    11    12    1
    18    11    34    1
    19    11    35    1
    20    12    13    1
    21    12    36    1
    22    12    37    1
    23    13    14    1
    24    13    28    1
    25    14    15    1
    26    14    38    1
    27    14    39    1
    28    15    19    1
    29    15    16    2
    30    16    17    1
    31    16    40    1
    32    17    18    1
    33    17    41    1
    34    18    19    2
    35    19    20    1
    36    20    26   ar
    37    20    21   ar
    38    21    22    1
    39    21    23   ar
    40    23    24   ar
    41    23    42    1
    42    24    25   ar
    43    24    43    1
    44    25    26   ar
    45    25    44    1
    46    26    27    1
    47    28    29    1
    48    28    45    1
    49    28    46    1
    50    29    47    1
    51    29    48    1
@<TRIPOS>SUBSTRUCTURE
     1 ZINC000506388363        1 TEMP              0 ****  ****    0 ROOT


##########                                Name:    ZINC000950547210
##########                DOCK_Rotatable_Bonds:                   5
##########                         Heavy_Atoms:                  25
##########                    Molecular_Weight:              346.47
##########                DOCK_Rotatable_Bonds:                   5
##########                       Formal_Charge:         5.58794e-07
##########                     HBond_Acceptors:                   5
##########                        HBond_Donors:                   1
##########                         Heavy_Atoms:                  25
##########                          Grid_Score:          -28.533522
##########                     Grid_vdw_energy:          -27.381643
##########                      Grid_es_energy:           -1.151878
##########           Internal_energy_repulsive:           17.464523

@<TRIPOS>MOLECULE
ZINC000950547210
 55 58 1 0 0
SMALL
USER_CHARGES


@<TRIPOS>ATOM
      1 O1         -3.7701    2.4961   47.7820 O.2     1  ZINC000950547210   -0.5200
      2 C2         -3.2087    2.8967   48.7796 C.2     1  ZINC000950547210    0.5200
      3 N3         -3.9300    3.2693   49.8552 N.am    1  ZINC000950547210   -0.7300
      4 C4         -5.3927    3.1961   49.8175 C.3     1  ZINC000950547210    0.1300
      5 H5         -5.7329    3.2465   48.7831 H       1  ZINC000950547210    0.0900
      6 C6         -5.8545    1.8779   50.4433 C.3     1  ZINC000950547210   -0.1300
      7 C7         -7.3805    1.7857   50.3746 C.3     1  ZINC000950547210   -0.1300
      8 C8         -7.9943    2.9408   51.1720 C.3     1  ZINC000950547210    0.1000
      9 N9         -7.4432    4.2070   50.6705 N.am    1  ZINC000950547210   -0.6100
     10 C10        -8.2606    5.2031   50.2753 C.2     1  ZINC000950547210    0.5600
     11 O11        -7.7920    6.2465   49.8620 O.2     1  ZINC000950547210   -0.5200
     12 C12        -9.7196    5.0282   50.3438 C.2     1  ZINC000950547210   -0.1400
     13 C13       -10.3638    5.4565   51.4144 C.2     1  ZINC000950547210   -0.1500
     14 C14       -11.8509    5.3127   51.5752 C.3     1  ZINC000950547210    0.0900
     15 O15       -12.4542    5.0120   50.3153 O.3     1  ZINC000950547210   -0.3700
     16 C16       -11.8223    3.9204   49.6357 C.3     1  ZINC000950547210    0.0600
     17 C17       -10.4276    4.3731   49.1896 C.3     1  ZINC000950547210   -0.1100
     18 C18        -5.9840    4.3675   50.6078 C.3     1  ZINC000950547210    0.1000
     19 C19        -1.7040    2.9721   48.8184 C.3     1  ZINC000950547210   -0.1000
     20 H20        -1.3978    3.7854   49.4763 H       1  ZINC000950547210    0.1000
     21 C21        -1.1697    3.2284   47.4079 C.3     1  ZINC000950547210   -0.1100
     22 C22        -0.2499    2.0778   46.9940 C.3     1  ZINC000950547210   -0.0900
     23 C23         0.9213    1.9834   47.9738 C.3     1  ZINC000950547210   -0.1100
     24 C24         0.3870    1.7271   49.3843 C.3     1  ZINC000950547210   -0.1100
     25 C25        -1.1406    1.6506   49.3449 C.3     1  ZINC000950547210   -0.0600
     26 C26        -1.5704    0.5089   48.4215 C.3     1  ZINC000950547210   -0.1300
     27 C27        -1.0360    0.7653   47.0109 C.3     1  ZINC000950547210   -0.1200
     28 H28        -3.4807    3.5860   50.6545 H       1  ZINC000950547210    0.4000
     29 H29        -5.4152    1.0431   49.8971 H       1  ZINC000950547210    0.0800
     30 H30        -5.5348    1.8388   51.4846 H       1  ZINC000950547210    0.0700
     31 H31        -7.7025    1.8498   49.3352 H       1  ZINC000950547210    0.0700
     32 H32        -7.7071    0.8365   50.7993 H       1  ZINC000950547210    0.0900
     33 H33        -9.0769    2.9378   51.0452 H       1  ZINC000950547210    0.0900
     34 H34        -7.7478    2.8276   52.2278 H       1  ZINC000950547210    0.0700
     35 H35        -9.7996    5.9282   52.2053 H       1  ZINC000950547210    0.1200
     36 H36       -12.0622    4.5073   52.2786 H       1  ZINC000950547210    0.0700
     37 H37       -12.2645    6.2445   51.9609 H       1  ZINC000950547210    0.1100
     38 H38       -11.7365    3.0690   50.3109 H       1  ZINC000950547210    0.0600
     39 H39       -12.4124    3.6415   48.7627 H       1  ZINC000950547210    0.1000
     40 H40       -10.5218    5.0800   48.3653 H       1  ZINC000950547210    0.0900
     41 H41        -9.8528    3.5073   48.8610 H       1  ZINC000950547210    0.0900
     42 H42        -5.5730    4.3706   51.6174 H       1  ZINC000950547210    0.0700
     43 H43        -5.7407    5.3057   50.1092 H       1  ZINC000950547210    0.1000
     44 H44        -2.0041    3.2956   46.7098 H       1  ZINC000950547210    0.0700
     45 H45        -0.6096    4.1634   47.3958 H       1  ZINC000950547210    0.0700
     46 H46         0.1307    2.2604   45.9891 H       1  ZINC000950547210    0.0700
     47 H47         1.5766    1.1637   47.6790 H       1  ZINC000950547210    0.0600
     48 H48         1.4814    2.9185   47.9618 H       1  ZINC000950547210    0.0600
     49 H49         0.7884    0.7856   49.7594 H       1  ZINC000950547210    0.0700
     50 H50         0.6932    2.5404   50.0422 H       1  ZINC000950547210    0.0600
     51 H51        -1.5213    1.4680   50.3497 H       1  ZINC000950547210    0.0800
     52 H52        -1.1690   -0.4325   48.7965 H       1  ZINC000950547210    0.0600
     53 H53        -2.6587    0.4544   48.3933 H       1  ZINC000950547210    0.0900
     54 H54        -1.8705    0.8325   46.3129 H       1  ZINC000950547210    0.0600
     55 H55        -0.3808   -0.0544   46.7161 H       1  ZINC000950547210    0.0600
@<TRIPOS>BOND
     1     1     2    2
     2     2     3   am
     3     2    19    1
     4     3     4    1
     5     3    28    1
     6     4     5    1
     7     4    18    1
     8     4     6    1
     9     6     7    1
    10     6    29    1
    11     6    30    1
    12     7     8    1
    13     7    31    1
    14     7    32    1
    15     8     9    1
    16     8    33    1
    17     8    34    1
    18     9    10   am
    19     9    18    1
    20    10    11    2
    21    10    12    1
    22    12    17    1
    23    12    13    2
    24    13    14    1
    25    13    35    1
    26    14    15    1
    27    14    36    1
    28    14    37    1
    29    15    16    1
    30    16    17    1
    31    16    38    1
    32    16    39    1
    33    17    40    1
    34    17    41    1
    35    18    42    1
    36    18    43    1
    37    19    20    1
    38    19    25    1
    39    19    21    1
    40    21    22    1
    41    21    44    1
    42    21    45    1
    43    22    27    1
    44    22    23    1
    45    22    46    1
    46    23    24    1
    47    23    47    1
    48    23    48    1
    49    24    25    1
    50    24    49    1
    51    24    50    1
    52    25    26    1
    53    25    51    1
    54    26    27    1
    55    26    52    1
    56    26    53    1
    57    27    54    1
    58    27    55    1
@<TRIPOS>SUBSTRUCTURE
     1 ZINC000950547210        1 TEMP              0 ****  ****    0 ROOT


##########                                Name:    ZINC000482139334
##########                DOCK_Rotatable_Bonds:                   4
##########                         Heavy_Atoms:                  26
##########                    Molecular_Weight:             348.376
##########                DOCK_Rotatable_Bonds:                   4
##########                       Formal_Charge:           0.0300002
##########                     HBond_Acceptors:                   5
##########                        HBond_Donors:                   1
##########                         Heavy_Atoms:                  26
##########                          Grid_Score:          -28.520073
##########                     Grid_vdw_energy:          -27.416239
##########                      Grid_es_energy:           -1.103834
##########           Internal_energy_repulsive:           21.854757

@<TRIPOS>MOLECULE
ZINC000482139334
 43 47 1 0 0
SMALL
USER_CHARGES


@<TRIPOS>ATOM
      1 O1         -5.5543    1.4186   51.3717 O.2     1  ZINC000482139334   -0.4800
      2 C2         -4.7626    2.3359   51.3218 C.2     1  ZINC000482139334    0.5500
      3 N3         -4.4204    2.9927   52.4478 N.am    1  ZINC000482139334   -0.6100
      4 C4         -4.9777    2.6236   53.6621 C.2     1  ZINC000482139334    0.4300
      5 N5         -6.0441    1.8811   53.8148 N.2     1  ZINC000482139334   -0.4800
      6 C6         -6.2814    1.7365   55.1449 C.2     1  ZINC000482139334    0.0400
      7 C7         -7.3922    0.9698   55.7611 C.ar    1  ZINC000482139334   -0.0500
      8 C8         -8.3545    0.3642   54.9564 C.ar    1  ZINC000482139334   -0.0800
      9 C9         -9.3858   -0.3484   55.5347 C.ar    1  ZINC000482139334   -0.1300
     10 C10        -9.4660   -0.4621   56.9107 C.ar    1  ZINC000482139334   -0.0800
     11 C11        -8.5146    0.1368   57.7165 C.ar    1  ZINC000482139334   -0.1600
     12 C12        -7.4739    0.8477   57.1490 C.ar    1  ZINC000482139334    0.1300
     13 F13        -6.5447    1.4325   57.9363 F       1  ZINC000482139334   -0.1200
     14 C14        -5.3169    2.4208   55.8042 C.2     1  ZINC000482139334   -0.0600
     15 O15        -4.5077    2.9649   54.8716 O.3     1  ZINC000482139334   -0.1800
     16 C16        -4.1565    2.7373   50.0016 C.3     1  ZINC000482139334   -0.1800
     17 H17        -4.8434    2.7569   49.1555 H       1  ZINC000482139334    0.1400
     18 C18        -3.0342    3.7785   50.0260 C.3     1  ZINC000482139334   -0.1200
     19 C19        -2.7176    2.3159   49.7305 C.3     1  ZINC000482139334   -0.0500
     20 C20        -1.9372    1.4526   50.7359 C.3     1  ZINC000482139334   -0.0700
     21 C21        -0.6724    1.0775   49.9320 C.3     1  ZINC000482139334   -0.0900
     22 C22        -1.0896    1.1484   48.4781 C.ar    1  ZINC000482139334   -0.0800
     23 C23        -0.4863    0.6287   47.3458 C.ar    1  ZINC000482139334   -0.1100
     24 C24        -1.0557    0.8227   46.1023 C.ar    1  ZINC000482139334   -0.1100
     25 C25        -2.2322    1.5387   45.9870 C.ar    1  ZINC000482139334   -0.1200
     26 C26        -2.8364    2.0582   47.1152 C.ar    1  ZINC000482139334   -0.1000
     27 C27        -2.2684    1.8650   48.3632 C.ar    1  ZINC000482139334   -0.0700
     28 H28        -3.7841    3.7238   52.4086 H       1  ZINC000482139334    0.4400
     29 H29        -8.2941    0.4523   53.8816 H       1  ZINC000482139334    0.1300
     30 H30       -10.1320   -0.8181   54.9110 H       1  ZINC000482139334    0.1400
     31 H31       -10.2752   -1.0206   57.3579 H       1  ZINC000482139334    0.1400
     32 H32        -8.5826    0.0452   58.7905 H       1  ZINC000482139334    0.1400
     33 H33        -5.2127    2.5112   56.8754 H       1  ZINC000482139334    0.2200
     34 H34        -2.9823    4.4825   49.1954 H       1  ZINC000482139334    0.1200
     35 H35        -2.7342    4.1730   50.9969 H       1  ZINC000482139334    0.1100
     36 H36        -1.6763    2.0300   51.6227 H       1  ZINC000482139334    0.0800
     37 H37        -2.5046    0.5615   51.0046 H       1  ZINC000482139334    0.0900
     38 H38         0.1272    1.7909   50.1311 H       1  ZINC000482139334    0.0800
     39 H39        -0.3502    0.0672   50.1840 H       1  ZINC000482139334    0.0800
     40 H40         0.4333    0.0695   47.4350 H       1  ZINC000482139334    0.1200
     41 H41        -0.5818    0.4158   45.2213 H       1  ZINC000482139334    0.1300
     42 H42        -2.6786    1.6921   45.0156 H       1  ZINC000482139334    0.1300
     43 H43        -3.7556    2.6179   47.0237 H       1  ZINC000482139334    0.1200
@<TRIPOS>BOND
     1     1     2    2
     2     2     3   am
     3     2    16    1
     4     3     4    1
     5     3    28    1
     6     4    15    1
     7     4     5    2
     8     5     6    1
     9     6     7    1
    10     6    14    2
    11     7    12   ar
    12     7     8   ar
    13     8     9   ar
    14     8    29    1
    15     9    10   ar
    16     9    30    1
    17    10    11   ar
    18    10    31    1
    19    11    12   ar
    20    11    32    1
    21    12    13    1
    22    14    15    1
    23    14    33    1
    24    16    17    1
    25    16    19    1
    26    16    18    1
    27    18    19    1
    28    18    34    1
    29    18    35    1
    30    19    27    1
    31    19    20    1
    32    20    21    1
    33    20    36    1
    34    20    37    1
    35    21    22    1
    36    21    38    1
    37    21    39    1
    38    22    27   ar
    39    22    23   ar
    40    23    24   ar
    41    23    40    1
    42    24    25   ar
    43    24    41    1
    44    25    26   ar
    45    25    42    1
    46    26    27   ar
    47    26    43    1
@<TRIPOS>SUBSTRUCTURE
     1 ZINC000482139334        1 TEMP              0 ****  ****    0 ROOT


##########                                Name:    ZINC000915315870
##########                DOCK_Rotatable_Bonds:                   4
##########                         Heavy_Atoms:                  24
##########                    Molecular_Weight:             357.381
##########                DOCK_Rotatable_Bonds:                   4
##########                       Formal_Charge:           0.0300002
##########                     HBond_Acceptors:                   9
##########                        HBond_Donors:                   1
##########                         Heavy_Atoms:                  24
##########                          Grid_Score:          -28.512247
##########                     Grid_vdw_energy:          -27.522207
##########                      Grid_es_energy:           -0.990040
##########           Internal_energy_repulsive:           37.352104

@<TRIPOS>MOLECULE
ZINC000915315870
 41 43 1 0 0
SMALL
USER_CHARGES


@<TRIPOS>ATOM
      1 C1         -9.7793    6.5307   48.8158 C.3     1  ZINC000915315870    0.0300
      2 O2         -8.6689    6.6187   49.7111 O.3     1  ZINC000915315870   -0.3200
      3 C3         -8.0465    5.4547   50.0391 C.ar    1  ZINC000915315870    0.0800
      4 C4         -6.9633    5.4657   50.9075 C.ar    1  ZINC000915315870    0.0900
      5 F5         -6.5263    6.6331   51.4286 F       1  ZINC000915315870   -0.1100
      6 C6         -6.3322    4.2798   51.2392 C.ar    1  ZINC000915315870   -0.0500
      7 C7         -6.7788    3.0849   50.7063 C.ar    1  ZINC000915315870   -0.6300
      8 S8         -5.9721    1.5770   51.1307 S.o2    1  ZINC000915315870    2.7000
      9 O9         -5.5087    1.7315   52.4651 O.2     1  ZINC000915315870   -0.9400
     10 O10        -6.8423    0.5288   50.7265 O.2     1  ZINC000915315870   -0.9400
     11 N11        -4.6228    1.4580   50.1780 N.am    1  ZINC000915315870   -1.1100
     12 C12        -3.5836    2.4883   50.2478 C.3     1  ZINC000915315870    0.2400
     13 H13        -4.0392    3.4566   50.4543 H       1  ZINC000915315870    0.0900
     14 C14        -2.5831    2.1399   51.3571 C.3     1  ZINC000915315870   -0.1400
     15 C15        -1.3736    3.0736   51.2732 C.3     1  ZINC000915315870   -0.1100
     16 C16        -0.5249    2.7135   50.0474 C.3     1  ZINC000915315870   -0.0400
     17 C17        -1.4366    2.6451   48.8463 C.2     1  ZINC000915315870    0.0900
     18 N18        -1.1128    2.6654   47.5861 N.2     1  ZINC000915315870   -0.2900
     19 N19        -2.2924    2.5818   46.8309 N.pl3   1  ZINC000915315870   -0.3800
     20 C20        -2.3799    2.5731   45.3685 C.3     1  ZINC000915315870    0.1000
     21 C21        -3.3340    2.5101   47.6899 C.2     1  ZINC000915315870    0.0800
     22 C22        -2.8356    2.5463   48.9387 C.2     1  ZINC000915315870   -0.2500
     23 C23        -7.8574    3.0704   49.8417 C.ar    1  ZINC000915315870   -0.0500
     24 C24        -8.4965    4.2523   49.5105 C.ar    1  ZINC000915315870    0.1000
     25 F25        -9.5505    4.2375   48.6655 F       1  ZINC000915315870   -0.1100
     26 H26       -10.1825    7.5276   48.6381 H       1  ZINC000915315870    0.1100
     27 H27        -9.4506    6.0979   47.8709 H       1  ZINC000915315870    0.0600
     28 H28       -10.5514    5.8995   49.2555 H       1  ZINC000915315870    0.0500
     29 H29        -5.4895    4.2878   51.9147 H       1  ZINC000915315870    0.1700
     30 H30        -4.5204    0.7061   49.5738 H       1  ZINC000915315870    0.4200
     31 H31        -3.0639    2.2557   52.3285 H       1  ZINC000915315870    0.0900
     32 H32        -2.2536    1.1079   51.2372 H       1  ZINC000915315870    0.0800
     33 H33        -1.7167    4.1044   51.1863 H       1  ZINC000915315870    0.0700
     34 H34        -0.7707    2.9678   52.1751 H       1  ZINC000915315870    0.0800
     35 H35         0.2353    3.4783   49.8891 H       1  ZINC000915315870    0.0800
     36 H36        -0.0474    1.7459   50.2022 H       1  ZINC000915315870    0.0900
     37 H37        -2.3298    1.5458   45.0077 H       1  ZINC000915315870    0.0800
     38 H38        -3.3238    3.0215   45.0584 H       1  ZINC000915315870    0.0900
     39 H39        -1.5513    3.1455   44.9516 H       1  ZINC000915315870    0.0900
     40 H40        -4.3777    2.4370   47.4220 H       1  ZINC000915315870    0.1700
     41 H41        -8.2042    2.1353   49.4273 H       1  ZINC000915315870    0.1700
@<TRIPOS>BOND
     1     1     2    1
     2     1    26    1
     3     1    27    1
     4     1    28    1
     5     2     3    1
     6     3    24   ar
     7     3     4   ar
     8     4     5    1
     9     4     6   ar
    10     6     7   ar
    11     6    29    1
    12     7     8    1
    13     7    23   ar
    14     8     9    2
    15     8    10    2
    16     8    11   am
    17    11    12    1
    18    11    30    1
    19    12    13    1
    20    12    22    1
    21    12    14    1
    22    14    15    1
    23    14    31    1
    24    14    32    1
    25    15    16    1
    26    15    33    1
    27    15    34    1
    28    16    17    1
    29    16    35    1
    30    16    36    1
    31    17    22    1
    32    17    18    2
    33    18    19    1
    34    19    20    1
    35    19    21    1
    36    20    37    1
    37    20    38    1
    38    20    39    1
    39    21    22    2
    40    21    40    1
    41    23    24   ar
    42    23    41    1
    43    24    25    1
@<TRIPOS>SUBSTRUCTURE
     1 ZINC000915315870        1 TEMP              0 ****  ****    0 ROOT


##########                                Name:    ZINC000291574087
##########                DOCK_Rotatable_Bonds:                   8
##########                         Heavy_Atoms:                  23
##########                    Molecular_Weight:             387.249
##########                DOCK_Rotatable_Bonds:                   8
##########                       Formal_Charge:          -0.0400007
##########                     HBond_Acceptors:                   6
##########                        HBond_Donors:                   2
##########                         Heavy_Atoms:                  23
##########                          Grid_Score:          -28.506269
##########                     Grid_vdw_energy:          -26.520679
##########                      Grid_es_energy:           -1.985590
##########           Internal_energy_repulsive:           27.052595

@<TRIPOS>MOLECULE
ZINC000291574087
 43 44 1 0 0
SMALL
USER_CHARGES


@<TRIPOS>ATOM
      1 C1         -6.2228    4.9146   54.8811 C.3     1  ZINC000291574087    0.0200
      2 O2         -4.8648    5.1080   54.4807 O.3     1  ZINC000291574087   -0.3700
      3 C3         -3.9077    4.5458   55.3808 C.3     1  ZINC000291574087    0.1400
      4 C4         -2.5357    5.1715   55.1223 C.3     1  ZINC000291574087   -0.1500
      5 C5         -3.8282    3.0337   55.1615 C.3     1  ZINC000291574087    0.0900
      6 N6         -3.5494    2.7589   53.7498 N.am    1  ZINC000291574087   -0.6900
      7 C7         -4.4982    2.2018   52.9715 C.2     1  ZINC000291574087    0.5100
      8 O8         -5.5831    1.9264   53.4404 O.2     1  ZINC000291574087   -0.5100
      9 C9         -4.2145    1.9234   51.5319 C.2     1  ZINC000291574087    0.5100
     10 O10        -5.0868    1.4743   50.8171 O.2     1  ZINC000291574087   -0.4900
     11 N11        -2.9900    2.1710   51.0264 N.am    1  ZINC000291574087   -0.6400
     12 C12        -2.7242    1.9104   49.6783 C.ar    1  ZINC000291574087    0.1300
     13 C13        -1.8923    0.8567   49.3243 C.ar    1  ZINC000291574087   -0.1000
     14 C14        -1.6318    0.6011   47.9918 C.ar    1  ZINC000291574087   -0.0400
     15 C15        -0.7288   -0.5426   47.6078 C.3     1  ZINC000291574087   -0.1300
     16 C16        -2.1989    1.3930   47.0095 C.ar    1  ZINC000291574087   -0.0900
     17 Br17       -1.8398    1.0376   45.1871 Br      1  ZINC000291574087   -0.0300
     18 C18        -3.0289    2.4444   47.3573 C.ar    1  ZINC000291574087   -0.1000
     19 C19        -3.2977    2.7028   48.6886 C.ar    1  ZINC000291574087    0.0700
     20 F20        -4.1078    3.7292   49.0284 F       1  ZINC000291574087   -0.1300
     21 C21        -4.3347    4.8304   56.8222 C.3     1  ZINC000291574087   -0.1900
     22 C22        -4.7330    3.6350   57.6900 C.3     1  ZINC000291574087   -0.1700
     23 C23        -3.4062    4.3543   57.9411 C.3     1  ZINC000291574087   -0.1600
     24 H24        -6.8867    5.3698   54.1461 H       1  ZINC000291574087    0.0900
     25 H25        -6.4332    3.8471   54.9487 H       1  ZINC000291574087    0.0400
     26 H26        -6.3845    5.3791   55.8538 H       1  ZINC000291574087    0.0500
     27 H27        -2.5923    6.2487   55.2785 H       1  ZINC000291574087    0.0700
     28 H28        -1.8057    4.7427   55.8089 H       1  ZINC000291574087    0.0800
     29 H29        -2.2315    4.9687   54.0955 H       1  ZINC000291574087    0.0700
     30 H30        -3.0300    2.6187   55.7769 H       1  ZINC000291574087    0.0900
     31 H31        -4.7773    2.5757   55.4401 H       1  ZINC000291574087    0.0800
     32 H32        -2.6818    2.9780   53.3752 H       1  ZINC000291574087    0.4200
     33 H33        -2.2929    2.5300   51.5974 H       1  ZINC000291574087    0.4300
     34 H34        -1.4488    0.2376   50.0900 H       1  ZINC000291574087    0.1600
     35 H35        -1.3233   -1.4468   47.4770 H       1  ZINC000291574087    0.0800
     36 H36        -0.2185   -0.3050   46.6743 H       1  ZINC000291574087    0.0800
     37 H37         0.0086   -0.7032   48.3943 H       1  ZINC000291574087    0.0800
     38 H38        -3.4699    3.0612   46.5881 H       1  ZINC000291574087    0.1500
     39 H39        -4.8712    5.7665   56.9774 H       1  ZINC000291574087    0.1100
     40 H40        -5.5319    3.7844   58.4165 H       1  ZINC000291574087    0.1000
     41 H41        -4.6909    2.6458   57.2341 H       1  ZINC000291574087    0.1000
     42 H42        -2.4912    3.8383   57.6504 H       1  ZINC000291574087    0.1000
     43 H43        -3.3321    4.9769   58.8327 H       1  ZINC000291574087    0.1000
@<TRIPOS>BOND
     1     1     2    1
     2     1    24    1
     3     1    25    1
     4     1    26    1
     5     2     3    1
     6     3     4    1
     7     3     5    1
     8     3    21    1
     9     4    27    1
    10     4    28    1
    11     4    29    1
    12     5     6    1
    13     5    30    1
    14     5    31    1
    15     6     7   am
    16     6    32    1
    17     7     8    2
    18     7     9    1
    19     9    10    2
    20     9    11   am
    21    11    12    1
    22    11    33    1
    23    12    19   ar
    24    12    13   ar
    25    13    14   ar
    26    13    34    1
    27    14    15    1
    28    14    16   ar
    29    15    35    1
    30    15    36    1
    31    15    37    1
    32    16    17    1
    33    16    18   ar
    34    18    19   ar
    35    18    38    1
    36    19    20    1
    37    21    23    1
    38    21    22    1
    39    21    39    1
    40    22    23    1
    41    22    40    1
    42    22    41    1
    43    23    42    1
    44    23    43    1
@<TRIPOS>SUBSTRUCTURE
     1 ZINC000291574087        1 TEMP              0 ****  ****    0 ROOT


##########                                Name:    ZINC001271977984
##########                DOCK_Rotatable_Bonds:                   7
##########                         Heavy_Atoms:                  24
##########                    Molecular_Weight:             328.371
##########                DOCK_Rotatable_Bonds:                   7
##########                       Formal_Charge:           0.0200001
##########                     HBond_Acceptors:                   7
##########                        HBond_Donors:                   0
##########                         Heavy_Atoms:                  24
##########                          Grid_Score:          -28.504091
##########                     Grid_vdw_energy:          -27.474194
##########                      Grid_es_energy:           -1.029898
##########           Internal_energy_repulsive:           19.867393

@<TRIPOS>MOLECULE
ZINC001271977984
 44 46 1 0 0
SMALL
USER_CHARGES


@<TRIPOS>ATOM
      1 C1         -9.5274    2.0389   58.0968 C.3     1  ZINC001271977984   -0.1800
      2 C2         -8.0931    1.5149   58.1933 C.3     1  ZINC001271977984    0.1700
      3 H3         -7.6210    1.9118   59.0919 H       1  ZINC001271977984    0.1100
      4 C4         -8.1117    0.0095   58.2586 C.2     1  ZINC001271977984    0.2700
      5 N5         -9.1712   -0.7271   58.1091 N.2     1  ZINC001271977984   -0.4700
      6 C6         -8.8165   -2.0351   58.2295 C.ar    1  ZINC001271977984    0.0200
      7 C7         -9.5218   -3.2374   58.1625 C.ar    1  ZINC001271977984   -0.0600
      8 C8         -8.8552   -4.4306   58.3319 C.ar    1  ZINC001271977984   -0.1200
      9 C9         -7.4888   -4.4442   58.5684 C.ar    1  ZINC001271977984   -0.0900
     10 C10        -6.7790   -3.2633   58.6375 C.ar    1  ZINC001271977984   -0.0900
     11 C11        -7.4337   -2.0532   58.4689 C.ar    1  ZINC001271977984    0.0100
     12 O12        -7.0347   -0.7622   58.4740 O.3     1  ZINC001271977984   -0.2100
     13 N13        -7.3344    1.9445   57.0110 N.3     1  ZINC001271977984   -0.5300
     14 C14        -5.8884    1.8812   57.2619 C.3     1  ZINC001271977984    0.0000
     15 C15        -7.6996    1.1469   55.8326 C.3     1  ZINC001271977984    0.0400
     16 C16        -8.3015    2.0618   54.7643 C.3     1  ZINC001271977984    0.1200
     17 N17        -7.3166    2.2877   53.7034 N.am    1  ZINC001271977984   -0.6000
     18 C18        -6.2212    3.2380   53.9114 C.3     1  ZINC001271977984    0.0800
     19 C19        -7.4183    1.6213   52.5364 C.2     1  ZINC001271977984    0.6000
     20 O20        -8.3277    0.8326   52.3639 O.2     1  ZINC001271977984   -0.5300
     21 C21        -6.4272    1.8487   51.4690 C.2     1  ZINC001271977984   -0.0800
     22 C22        -5.0804    1.6798   51.5670 C.2     1  ZINC001271977984    0.0200
     23 O23        -4.5585    1.9944   50.3707 O.3     1  ZINC001271977984   -0.2000
     24 C24        -5.5620    2.3488   49.5556 C.2     1  ZINC001271977984    0.1800
     25 N25        -6.6875    2.2613   50.1988 N.2     1  ZINC001271977984   -0.4600
     26 H26        -9.5140    3.1278   58.0496 H       1  ZINC001271977984    0.0800
     27 H27        -9.9995    1.6420   57.1982 H       1  ZINC001271977984    0.0800
     28 H28       -10.0904    1.7203   58.9741 H       1  ZINC001271977984    0.0700
     29 H29       -10.5860   -3.2322   57.9789 H       1  ZINC001271977984    0.1400
     30 H30        -9.4002   -5.3617   58.2806 H       1  ZINC001271977984    0.1400
     31 H31        -6.9768   -5.3860   58.6997 H       1  ZINC001271977984    0.1400
     32 H32        -5.7150   -3.2817   58.8220 H       1  ZINC001271977984    0.1400
     33 H33        -5.6062    0.8568   57.5051 H       1  ZINC001271977984    0.0300
     34 H34        -5.3505    2.2045   56.3707 H       1  ZINC001271977984    0.0700
     35 H35        -5.6354    2.5355   58.0963 H       1  ZINC001271977984    0.1100
     36 H36        -6.8099    0.6592   55.4341 H       1  ZINC001271977984    0.0500
     37 H37        -8.4313    0.3910   56.1180 H       1  ZINC001271977984    0.0800
     38 H38        -9.1894    1.5915   54.3416 H       1  ZINC001271977984    0.0900
     39 H39        -8.5752    3.0157   55.2150 H       1  ZINC001271977984    0.0900
     40 H40        -5.3363    2.7027   54.2559 H       1  ZINC001271977984    0.0600
     41 H41        -5.9968    3.7447   52.9728 H       1  ZINC001271977984    0.0900
     42 H42        -6.5154    3.9735   54.6601 H       1  ZINC001271977984    0.0700
     43 H43        -4.5352    1.3549   52.4407 H       1  ZINC001271977984    0.2300
     44 H44        -5.4525    2.6553   48.5258 H       1  ZINC001271977984    0.2600
@<TRIPOS>BOND
     1     1     2    1
     2     1    26    1
     3     1    27    1
     4     1    28    1
     5     2     3    1
     6     2     4    1
     7     2    13    1
     8     4    12    1
     9     4     5    2
    10     5     6    1
    11     6    11   ar
    12     6     7   ar
    13     7     8   ar
    14     7    29    1
    15     8     9   ar
    16     8    30    1
    17     9    10   ar
    18     9    31    1
    19    10    11   ar
    20    10    32    1
    21    11    12    1
    22    13    14    1
    23    13    15    1
    24    14    33    1
    25    14    34    1
    26    14    35    1
    27    15    16    1
    28    15    36    1
    29    15    37    1
    30    16    17    1
    31    16    38    1
    32    16    39    1
    33    17    18    1
    34    17    19   am
    35    18    40    1
    36    18    41    1
    37    18    42    1
    38    19    20    2
    39    19    21    1
    40    21    25    1
    41    21    22    2
    42    22    23    1
    43    22    43    1
    44    23    24    1
    45    24    25    2
    46    24    44    1
@<TRIPOS>SUBSTRUCTURE
     1 ZINC001271977984        1 TEMP              0 ****  ****    0 ROOT


##########                                Name:    ZINC001122903793
##########                DOCK_Rotatable_Bonds:                   4
##########                         Heavy_Atoms:                  25
##########                    Molecular_Weight:             399.968
##########                DOCK_Rotatable_Bonds:                   4
##########                       Formal_Charge:           0.0100003
##########                     HBond_Acceptors:                   9
##########                        HBond_Donors:                   0
##########                         Heavy_Atoms:                  25
##########                          Grid_Score:          -28.499813
##########                     Grid_vdw_energy:          -26.608952
##########                      Grid_es_energy:           -1.890861
##########           Internal_energy_repulsive:           19.326099

@<TRIPOS>MOLECULE
ZINC001122903793
 47 50 1 0 0
SMALL
USER_CHARGES


@<TRIPOS>ATOM
      1 C1          1.0397    1.1200   48.4683 C.3     1  ZINC001122903793   -0.1400
      2 C2         -0.4833    1.2659   48.4838 C.3     1  ZINC001122903793   -0.0400
      3 H3         -0.9331    0.3651   48.9012 H       1  ZINC001122903793    0.1000
      4 S4         -1.0899    1.5227   46.7883 S.3     1  ZINC001122903793   -0.2500
      5 C5         -2.8372    1.9401   47.0738 C.3     1  ZINC001122903793   -0.0800
      6 C6         -2.9052    3.0632   48.1142 C.3     1  ZINC001122903793    0.0700
      7 N7         -2.3342    2.6025   49.3818 N.3     1  ZINC001122903793   -0.4800
      8 C8         -2.7280    3.4187   50.4295 C.2     1  ZINC001122903793    0.3700
      9 N9         -2.4919    4.7047   50.5451 N.2     1  ZINC001122903793   -0.2900
     10 N10        -2.9984    5.1514   51.6384 N.2     1  ZINC001122903793   -0.2400
     11 C11        -3.5908    4.1751   52.2898 C.2     1  ZINC001122903793    0.2600
     12 C12        -4.2880    4.2810   53.5819 C.2     1  ZINC001122903793   -0.1600
     13 C13        -5.2656    5.1656   53.8912 C.2     1  ZINC001122903793    0.1600
     14 Cl14       -5.8595    6.3472   52.7666 Cl      1  ZINC001122903793    0.0300
     15 N15        -5.7255    5.0517   55.1172 N.2     1  ZINC001122903793   -0.4600
     16 C16        -5.2050    4.1341   55.8625 C.2     1  ZINC001122903793    0.0300
     17 S17        -4.0053    3.2744   55.0002 S.3     1  ZINC001122903793    0.2200
     18 N18        -3.4395    3.0357   51.5317 N.pl3   1  ZINC001122903793   -0.4600
     19 C19        -3.9319    1.6919   51.8448 C.3     1  ZINC001122903793    0.1100
     20 C20        -5.2511    1.4479   51.1094 C.3     1  ZINC001122903793    0.0700
     21 H21        -5.3798    0.3847   50.9071 H       1  ZINC001122903793    0.0800
     22 C22        -6.4402    1.9842   51.9457 C.3     1  ZINC001122903793   -0.1500
     23 C23        -7.4926    2.2386   50.8323 C.3     1  ZINC001122903793   -0.1500
     24 C24        -6.6120    2.6814   49.6440 C.3     1  ZINC001122903793    0.0500
     25 O25        -5.2844    2.1962   49.8836 O.3     1  ZINC001122903793   -0.3700
     26 C26        -0.8756    2.4789   49.3342 C.3     1  ZINC001122903793    0.1000
     27 H27        -0.4502    3.3793   48.8909 H       1  ZINC001122903793    0.0800
     28 C28        -0.3334    2.3065   50.7544 C.3     1  ZINC001122903793   -0.1500
     29 H29         1.4011    0.9733   49.4861 H       1  ZINC001122903793    0.0800
     30 H30         1.3162    0.2608   47.8571 H       1  ZINC001122903793    0.0700
     31 H31         1.4868    2.0221   48.0505 H       1  ZINC001122903793    0.0700
     32 H32        -3.2903    2.2767   46.1413 H       1  ZINC001122903793    0.1200
     33 H33        -3.3670    1.0633   47.4461 H       1  ZINC001122903793    0.0900
     34 H34        -2.3418    3.9244   47.7549 H       1  ZINC001122903793    0.0700
     35 H35        -3.9450    3.3511   48.2688 H       1  ZINC001122903793    0.0900
     36 H36        -5.4907    3.9352   56.8848 H       1  ZINC001122903793    0.2100
     37 H37        -3.1967    0.9525   51.5274 H       1  ZINC001122903793    0.1200
     38 H38        -4.0935    1.6054   52.9193 H       1  ZINC001122903793    0.1000
     39 H39        -6.7916    1.2345   52.6545 H       1  ZINC001122903793    0.0900
     40 H40        -6.1758    2.9107   52.4554 H       1  ZINC001122903793    0.0800
     41 H41        -8.0341    1.3232   50.5939 H       1  ZINC001122903793    0.0800
     42 H42        -8.1803    3.0330   51.1227 H       1  ZINC001122903793    0.0900
     43 H43        -6.9986    2.2551   48.7183 H       1  ZINC001122903793    0.0700
     44 H44        -6.6026    3.7692   49.5760 H       1  ZINC001122903793    0.0700
     45 H45        -0.7604    1.4078   51.1997 H       1  ZINC001122903793    0.0600
     46 H46         0.7522    2.2143   50.7202 H       1  ZINC001122903793    0.0800
     47 H47        -0.6057    3.1742   51.3552 H       1  ZINC001122903793    0.0600
@<TRIPOS>BOND
     1     1     2    1
     2     1    29    1
     3     1    30    1
     4     1    31    1
     5     2     3    1
     6     2    26    1
     7     2     4    1
     8     4     5    1
     9     5     6    1
    10     5    32    1
    11     5    33    1
    12     6     7    1
    13     6    34    1
    14     6    35    1
    15     7     8    1
    16     7    26    1
    17     8    18    1
    18     8     9    2
    19     9    10    1
    20    10    11    2
    21    11    12    1
    22    11    18    1
    23    12    17    1
    24    12    13    2
    25    13    14    1
    26    13    15    1
    27    15    16    2
    28    16    17    1
    29    16    36    1
    30    18    19    1
    31    19    20    1
    32    19    37    1
    33    19    38    1
    34    20    21    1
    35    20    25    1
    36    20    22    1
    37    22    23    1
    38    22    39    1
    39    22    40    1
    40    23    24    1
    41    23    41    1
    42    23    42    1
    43    24    25    1
    44    24    43    1
    45    24    44    1
    46    26    27    1
    47    26    28    1
    48    28    45    1
    49    28    46    1
    50    28    47    1
@<TRIPOS>SUBSTRUCTURE
     1 ZINC001122903793        1 TEMP              0 ****  ****    0 ROOT


##########                                Name:    ZINC000540473851
##########                DOCK_Rotatable_Bonds:                   5
##########                         Heavy_Atoms:                  29
##########                    Molecular_Weight:             411.503
##########                DOCK_Rotatable_Bonds:                   5
##########                       Formal_Charge:           0.0200001
##########                     HBond_Acceptors:                   8
##########                        HBond_Donors:                   0
##########                         Heavy_Atoms:                  29
##########                          Grid_Score:          -28.498535
##########                     Grid_vdw_energy:          -27.734692
##########                      Grid_es_energy:           -0.763844
##########           Internal_energy_repulsive:           18.941999

@<TRIPOS>MOLECULE
ZINC000540473851
 51 54 1 0 0
SMALL
USER_CHARGES


@<TRIPOS>ATOM
      1 C1         -9.4964    3.7717   54.7307 C.3     1  ZINC000540473851   -0.0800
      2 C2         -8.0499    3.6718   54.3200 C.2     1  ZINC000540473851    0.1500
      3 C3         -7.0138    3.7624   55.2112 C.2     1  ZINC000540473851   -0.3100
      4 C4         -7.1335    3.9640   56.6603 C.2     1  ZINC000540473851    0.6000
      5 O5         -7.2993    5.0835   57.1071 O.2     1  ZINC000540473851   -0.5100
      6 N6         -7.0598    2.9090   57.4958 N.am    1  ZINC000540473851   -0.6100
      7 C7         -7.1832    3.0879   58.9503 C.3     1  ZINC000540473851    0.1000
      8 C8         -8.2410    2.1100   59.4730 C.3     1  ZINC000540473851    0.0400
      9 N9         -7.8999    0.7479   59.0414 N.3     1  ZINC000540473851   -0.5300
     10 C10        -8.7913   -0.2402   59.6634 C.3     1  ZINC000540473851    0.1200
     11 H11        -9.8283    0.0589   59.5104 H       1  ZINC000540473851    0.0500
     12 C12        -8.4990   -0.3180   61.1632 C.3     1  ZINC000540473851   -0.1400
     13 C13        -8.5601   -1.5906   59.0358 C.ar    1  ZINC000540473851   -0.0500
     14 C14        -9.6304   -2.3219   58.5562 C.ar    1  ZINC000540473851   -0.1000
     15 C15        -9.4199   -3.5611   57.9802 C.ar    1  ZINC000540473851   -0.0900
     16 C16        -8.1388   -4.0699   57.8835 C.ar    1  ZINC000540473851   -0.1500
     17 C17        -7.0656   -3.3379   58.3632 C.ar    1  ZINC000540473851    0.1000
     18 F18        -5.8127   -3.8344   58.2691 F       1  ZINC000540473851   -0.1400
     19 C19        -7.2771   -2.0950   58.9349 C.ar    1  ZINC000540473851   -0.1500
     20 C20        -7.9245    0.6310   57.5772 C.3     1  ZINC000540473851    0.0400
     21 C21        -6.8598    1.5475   56.9765 C.3     1  ZINC000540473851    0.1200
     22 S22        -5.5115    3.5932   54.3061 S.3     1  ZINC000540473851    0.2800
     23 C23        -6.3931    3.4208   52.8520 C.2     1  ZINC000540473851    0.0800
     24 C24        -5.7872    3.2193   51.5173 C.ar    1  ZINC000540473851    0.3800
     25 N25        -4.4769    3.0326   51.4223 N.ar    1  ZINC000540473851   -0.5100
     26 C26        -3.9045    2.8498   50.2455 C.ar    1  ZINC000540473851    0.1600
     27 C27        -4.6906    2.8547   49.1022 C.ar    1  ZINC000540473851   -0.2100
     28 C28        -6.0573    3.0526   49.2374 C.ar    1  ZINC000540473851    0.1500
     29 N29        -6.5675    3.2241   50.4442 N.ar    1  ZINC000540473851   -0.4700
     30 N30        -7.6732    3.4856   53.0840 N.2     1  ZINC000540473851   -0.4300
     31 H31        -9.8747    2.7787   54.9736 H       1  ZINC000540473851    0.0900
     32 H32        -9.5823    4.4170   55.6049 H       1  ZINC000540473851    0.0800
     33 H33       -10.0788    4.1918   53.9105 H       1  ZINC000540473851    0.0800
     34 H34        -6.2253    2.8803   59.4274 H       1  ZINC000540473851    0.0900
     35 H35        -7.4903    4.1106   59.1688 H       1  ZINC000540473851    0.0900
     36 H36        -8.2673    2.1506   60.5620 H       1  ZINC000540473851    0.1000
     37 H37        -9.2179    2.3839   59.0746 H       1  ZINC000540473851    0.0400
     38 H38        -7.4621   -0.6170   61.3162 H       1  ZINC000540473851    0.0700
     39 H39        -8.6663    0.6588   61.6171 H       1  ZINC000540473851    0.0600
     40 H40        -9.1605   -1.0511   61.6248 H       1  ZINC000540473851    0.0600
     41 H41       -10.6321   -1.9252   58.6318 H       1  ZINC000540473851    0.1400
     42 H42       -10.2570   -4.1318   57.6061 H       1  ZINC000540473851    0.1300
     43 H43        -7.9747   -5.0382   57.4341 H       1  ZINC000540473851    0.1300
     44 H44        -6.4409   -1.5231   59.3091 H       1  ZINC000540473851    0.1300
     45 H45        -7.7213   -0.4010   57.2913 H       1  ZINC000540473851    0.1000
     46 H46        -8.9058    0.9256   57.2052 H       1  ZINC000540473851    0.0400
     47 H47        -6.9504    1.5512   55.8903 H       1  ZINC000540473851    0.1000
     48 H48        -5.8691    1.1947   57.2629 H       1  ZINC000540473851    0.0800
     49 H49        -2.8375    2.6987   50.1744 H       1  ZINC000540473851    0.1800
     50 H50        -4.2482    2.7080   48.1279 H       1  ZINC000540473851    0.1600
     51 H51        -6.6969    3.0619   48.3673 H       1  ZINC000540473851    0.1800
@<TRIPOS>BOND
     1     1     2    1
     2     1    31    1
     3     1    32    1
     4     1    33    1
     5     2    30    1
     6     2     3    2
     7     3     4    1
     8     3    22    1
     9     4     5    2
    10     4     6   am
    11     6    21    1
    12     6     7    1
    13     7     8    1
    14     7    34    1
    15     7    35    1
    16     8     9    1
    17     8    36    1
    18     8    37    1
    19     9    10    1
    20     9    20    1
    21    10    11    1
    22    10    12    1
    23    10    13    1
    24    12    38    1
    25    12    39    1
    26    12    40    1
    27    13    19   ar
    28    13    14   ar
    29    14    15   ar
    30    14    41    1
    31    15    16   ar
    32    15    42    1
    33    16    17   ar
    34    16    43    1
    35    17    18    1
    36    17    19   ar
    37    19    44    1
    38    20    21    1
    39    20    45    1
    40    20    46    1
    41    21    47    1
    42    21    48    1
    43    22    23    1
    44    23    24    1
    45    23    30    2
    46    24    29   ar
    47    24    25   ar
    48    25    26   ar
    49    26    27   ar
    50    26    49    1
    51    27    28   ar
    52    27    50    1
    53    28    29   ar
    54    28    51    1
@<TRIPOS>SUBSTRUCTURE
     1 ZINC000540473851        1 TEMP              0 ****  ****    0 ROOT


##########                                Name:    ZINC000373864439
##########                DOCK_Rotatable_Bonds:                   7
##########                         Heavy_Atoms:                  23
##########                    Molecular_Weight:              344.45
##########                DOCK_Rotatable_Bonds:                   7
##########                       Formal_Charge:          -0.0300001
##########                     HBond_Acceptors:                   7
##########                        HBond_Donors:                   1
##########                         Heavy_Atoms:                  23
##########                          Grid_Score:          -28.492804
##########                     Grid_vdw_energy:          -29.019905
##########                      Grid_es_energy:            0.527101
##########           Internal_energy_repulsive:           22.694319

@<TRIPOS>MOLECULE
ZINC000373864439
 48 49 1 0 0
SMALL
USER_CHARGES


@<TRIPOS>ATOM
      1 C1         -1.3998    0.2192   45.0035 C.3     1  ZINC000373864439   -0.1500
      2 C2         -0.5787    0.8512   46.1293 C.3     1  ZINC000373864439   -0.6300
      3 S3         -1.3491    0.4705   47.7267 S.o2    1  ZINC000373864439    2.6100
      4 O4         -1.6341   -0.9182   47.8245 O.2     1  ZINC000373864439   -0.9500
      5 O5         -0.6836    1.1575   48.7777 O.2     1  ZINC000373864439   -0.9600
      6 N6         -2.8392    1.1888   47.6485 N.am    1  ZINC000373864439   -1.1200
      7 C7         -2.9449    2.6368   47.4525 C.3     1  ZINC000373864439    0.1100
      8 C8         -3.0232    3.3312   48.8136 C.3     1  ZINC000373864439    0.0500
      9 N9         -4.0388    2.6694   49.6433 N.3     1  ZINC000373864439   -0.5300
     10 C10        -5.3699    3.2405   49.4012 C.3     1  ZINC000373864439    0.0400
     11 C11        -6.4197    2.4344   50.1695 C.3     1  ZINC000373864439   -0.1300
     12 C12        -6.0917    2.4722   51.6646 C.3     1  ZINC000373864439    0.1800
     13 F13        -6.1506    3.7928   52.1228 F       1  ZINC000373864439   -0.2100
     14 C14        -7.0886    1.6320   52.4204 C.ar    1  ZINC000373864439   -0.1500
     15 C15        -7.8387    0.6828   51.7540 C.ar    1  ZINC000373864439   -0.0700
     16 C16        -8.7540   -0.0882   52.4470 C.ar    1  ZINC000373864439   -0.1600
     17 C17        -8.9203    0.0884   53.8079 C.ar    1  ZINC000373864439   -0.0700
     18 C18        -8.1720    1.0362   54.4793 C.ar    1  ZINC000373864439   -0.2100
     19 C19        -7.2495    1.8072   53.7874 C.ar    1  ZINC000373864439    0.1400
     20 O20        -6.5122    2.7402   54.4454 O.3     1  ZINC000373864439   -0.3100
     21 C21        -7.2181    3.6351   55.3072 C.3     1  ZINC000373864439    0.0200
     22 C22        -4.6818    1.9169   51.8840 C.3     1  ZINC000373864439   -0.1300
     23 C23        -3.6824    2.7381   51.0662 C.3     1  ZINC000373864439    0.0600
     24 H24        -2.4129    0.6208   45.0231 H       1  ZINC000373864439    0.0700
     25 H25        -0.9368    0.4479   44.0436 H       1  ZINC000373864439    0.0800
     26 H26        -1.4346   -0.8615   45.1418 H       1  ZINC000373864439    0.0700
     27 H27         0.4344    0.4495   46.1096 H       1  ZINC000373864439    0.1300
     28 H28        -0.5438    1.9318   45.9910 H       1  ZINC000373864439    0.1300
     29 H29        -3.6419    0.6508   47.7324 H       1  ZINC000373864439    0.4200
     30 H30        -2.0691    2.9951   46.9116 H       1  ZINC000373864439    0.0700
     31 H31        -3.8437    2.8610   46.8780 H       1  ZINC000373864439    0.0900
     32 H32        -2.0540    3.2709   49.3086 H       1  ZINC000373864439    0.0900
     33 H33        -3.2947    4.3775   48.6726 H       1  ZINC000373864439    0.0400
     34 H34        -5.3879    4.2763   49.7403 H       1  ZINC000373864439    0.0400
     35 H35        -5.5925    3.2036   48.3349 H       1  ZINC000373864439    0.0900
     36 H36        -7.4056    2.8679   50.0020 H       1  ZINC000373864439    0.0800
     37 H37        -6.4119    1.4015   49.8212 H       1  ZINC000373864439    0.1000
     38 H38        -7.7108    0.5429   50.6908 H       1  ZINC000373864439    0.1300
     39 H39        -9.3401   -0.8293   51.9239 H       1  ZINC000373864439    0.1300
     40 H40        -9.6360   -0.5147   54.3468 H       1  ZINC000373864439    0.1300
     41 H41        -8.3025    1.1741   55.5425 H       1  ZINC000373864439    0.1300
     42 H42        -6.5133    4.3266   55.7690 H       1  ZINC000373864439    0.1000
     43 H43        -7.9505    4.1965   54.7269 H       1  ZINC000373864439    0.0600
     44 H44        -7.7292    3.0651   56.0831 H       1  ZINC000373864439    0.0600
     45 H45        -4.4260    1.9809   52.9417 H       1  ZINC000373864439    0.0800
     46 H46        -4.6466    0.8760   51.5628 H       1  ZINC000373864439    0.1000
     47 H47        -2.6792    2.3363   51.2091 H       1  ZINC000373864439    0.0800
     48 H48        -3.7081    3.7762   51.3974 H       1  ZINC000373864439    0.0400
@<TRIPOS>BOND
     1     1     2    1
     2     1    24    1
     3     1    25    1
     4     1    26    1
     5     2     3    1
     6     2    27    1
     7     2    28    1
     8     3     4    2
     9     3     5    2
    10     3     6   am
    11     6     7    1
    12     6    29    1
    13     7     8    1
    14     7    30    1
    15     7    31    1
    16     8     9    1
    17     8    32    1
    18     8    33    1
    19     9    23    1
    20     9    10    1
    21    10    11    1
    22    10    34    1
    23    10    35    1
    24    11    12    1
    25    11    36    1
    26    11    37    1
    27    12    13    1
    28    12    14    1
    29    12    22    1
    30    14    19   ar
    31    14    15   ar
    32    15    16   ar
    33    15    38    1
    34    16    17   ar
    35    16    39    1
    36    17    18   ar
    37    17    40    1
    38    18    19   ar
    39    18    41    1
    40    19    20    1
    41    20    21    1
    42    21    42    1
    43    21    43    1
    44    21    44    1
    45    22    23    1
    46    22    45    1
    47    22    46    1
    48    23    47    1
    49    23    48    1
@<TRIPOS>SUBSTRUCTURE
     1 ZINC000373864439        1 TEMP              0 ****  ****    0 ROOT


##########                                Name:    ZINC000626935317
##########                DOCK_Rotatable_Bonds:                   6
##########                         Heavy_Atoms:                  25
##########                    Molecular_Weight:             366.441
##########                DOCK_Rotatable_Bonds:                   6
##########                       Formal_Charge:          -0.0200006
##########                     HBond_Acceptors:                   9
##########                        HBond_Donors:                   2
##########                         Heavy_Atoms:                  25
##########                          Grid_Score:          -28.492168
##########                     Grid_vdw_energy:          -27.966221
##########                      Grid_es_energy:           -0.525947
##########           Internal_energy_repulsive:           12.490841

@<TRIPOS>MOLECULE
ZINC000626935317
 47 49 1 0 0
SMALL
USER_CHARGES


@<TRIPOS>ATOM
      1 C1         -6.4834   -2.4462   58.8073 C.3     1  ZINC000626935317    0.0900
      2 N2         -7.7279   -2.3458   58.0409 N.am    1  ZINC000626935317   -0.6200
      3 C3         -8.4607   -3.4000   57.6427 C.2     1  ZINC000626935317    0.5200
      4 O4         -8.1833   -4.5605   57.8600 O.2     1  ZINC000626935317   -0.5200
      5 C5         -9.6818   -2.9283   56.8845 C.3     1  ZINC000626935317   -0.1500
      6 C6         -9.7948   -1.4284   57.2432 C.3     1  ZINC000626935317   -0.1200
      7 H7        -10.4566   -1.2801   58.0965 H       1  ZINC000626935317    0.1200
      8 C8        -10.2603   -0.6238   56.0570 C.2     1  ZINC000626935317    0.5300
      9 O9        -11.3065   -0.0128   56.1114 O.2     1  ZINC000626935317   -0.5200
     10 N10        -9.5138   -0.5833   54.9356 N.am    1  ZINC000626935317   -0.7100
     11 C11        -9.9671    0.1975   53.7817 C.3     1  ZINC000626935317    0.1200
     12 C12        -9.9751    1.7151   54.0295 C.3     1  ZINC000626935317   -0.1600
     13 C13        -8.5200    1.7249   53.5320 C.3     1  ZINC000626935317    0.1200
     14 N14        -7.5352    1.5054   54.5941 N.am    1  ZINC000626935317   -1.1100
     15 S15        -6.0418    2.2147   54.4980 S.o2    1  ZINC000626935317    2.6100
     16 C16        -6.3885    3.9946   54.4501 C.3     1  ZINC000626935317   -0.6700
     17 O17        -5.4075    1.8630   55.7199 O.2     1  ZINC000626935317   -0.9500
     18 O18        -5.5241    1.7737   53.2503 O.2     1  ZINC000626935317   -0.9500
     19 C19        -8.8653    0.4528   52.7397 C.3     1  ZINC000626935317   -0.1600
     20 C20        -8.3380   -1.0809   57.6145 C.3     1  ZINC000626935317    0.2000
     21 H21        -7.8103   -0.6889   56.7450 H       1  ZINC000626935317    0.1100
     22 C22        -8.3115   -0.0754   58.7366 C.ar    1  ZINC000626935317   -0.1600
     23 C23        -7.8152    1.2014   58.5235 C.ar    1  ZINC000626935317   -0.0500
     24 C24        -7.8108    2.0935   59.5852 C.ar    1  ZINC000626935317   -0.1700
     25 C25        -8.2978    1.6833   60.8115 C.ar    1  ZINC000626935317    0.1000
     26 N26        -8.7626    0.4603   60.9779 N.ar    1  ZINC000626935317   -0.4800
     27 C27        -8.7870   -0.4126   59.9899 C.ar    1  ZINC000626935317    0.1200
     28 H28        -6.7112   -2.4347   59.8732 H       1  ZINC000626935317    0.0600
     29 H29        -5.9751   -3.3767   58.5545 H       1  ZINC000626935317    0.0800
     30 H30        -5.8380   -1.6020   58.5646 H       1  ZINC000626935317    0.0700
     31 H31        -9.5369   -3.0541   55.8117 H       1  ZINC000626935317    0.1100
     32 H32       -10.5688   -3.4677   57.2165 H       1  ZINC000626935317    0.1200
     33 H33        -8.6764   -1.0709   54.8924 H       1  ZINC000626935317    0.4000
     34 H34       -10.8947   -0.1811   53.3525 H       1  ZINC000626935317    0.1100
     35 H35       -10.6618    2.2597   53.3815 H       1  ZINC000626935317    0.1100
     36 H36       -10.0791    1.9853   55.0805 H       1  ZINC000626935317    0.0800
     37 H37        -8.2797    2.5814   52.9022 H       1  ZINC000626935317    0.1100
     38 H38        -7.7577    0.9445   55.3536 H       1  ZINC000626935317    0.4100
     39 H39        -6.9198    4.2859   55.3562 H       1  ZINC000626935317    0.1300
     40 H40        -5.4504    4.5459   54.3859 H       1  ZINC000626935317    0.1300
     41 H41        -7.0037    4.2217   53.5793 H       1  ZINC000626935317    0.1300
     42 H42        -8.0733   -0.2960   52.7491 H       1  ZINC000626935317    0.0900
     43 H43        -9.2486    0.6524   51.7390 H       1  ZINC000626935317    0.1100
     44 H44        -7.4405    1.4941   57.5539 H       1  ZINC000626935317    0.1400
     45 H45        -7.4312    3.0963   59.4552 H       1  ZINC000626935317    0.1400
     46 H46        -8.2976    2.3719   61.6435 H       1  ZINC000626935317    0.1600
     47 H47        -9.1751   -1.4053   60.1642 H       1  ZINC000626935317    0.1500
@<TRIPOS>BOND
     1     1     2    1
     2     1    28    1
     3     1    29    1
     4     1    30    1
     5     2    20    1
     6     2     3   am
     7     3     4    2
     8     3     5    1
     9     5     6    1
    10     5    31    1
    11     5    32    1
    12     6     7    1
    13     6     8    1
    14     6    20    1
    15     8     9    2
    16     8    10   am
    17    10    11    1
    18    10    33    1
    19    11    19    1
    20    11    12    1
    21    11    34    1
    22    12    13    1
    23    12    35    1
    24    12    36    1
    25    13    14    1
    26    13    19    1
    27    13    37    1
    28    14    15   am
    29    14    38    1
    30    15    16    1
    31    15    17    2
    32    15    18    2
    33    16    39    1
    34    16    40    1
    35    16    41    1
    36    19    42    1
    37    19    43    1
    38    20    21    1
    39    20    22    1
    40    22    27   ar
    41    22    23   ar
    42    23    24   ar
    43    23    44    1
    44    24    25   ar
    45    24    45    1
    46    25    26   ar
    47    25    46    1
    48    26    27   ar
    49    27    47    1
@<TRIPOS>SUBSTRUCTURE
     1 ZINC000626935317        1 TEMP              0 ****  ****    0 ROOT


##########                                Name:    ZINC000963156778
##########                DOCK_Rotatable_Bonds:                   6
##########                         Heavy_Atoms:                  24
##########                    Molecular_Weight:             349.414
##########                DOCK_Rotatable_Bonds:                   6
##########                       Formal_Charge:         -0.00999984
##########                     HBond_Acceptors:                   9
##########                        HBond_Donors:                   2
##########                         Heavy_Atoms:                  24
##########                          Grid_Score:          -28.487623
##########                     Grid_vdw_energy:          -26.960936
##########                      Grid_es_energy:           -1.526688
##########           Internal_energy_repulsive:            8.450377

@<TRIPOS>MOLECULE
ZINC000963156778
 43 46 1 0 0
SMALL
USER_CHARGES


@<TRIPOS>ATOM
      1 C1        -19.8724   -3.3751   58.7198 C.3     1  ZINC000963156778   -0.0800
      2 C2        -19.4489   -1.9714   59.0681 C.2     1  ZINC000963156778    0.0300
      3 C3        -18.4935   -1.2858   58.3981 C.2     1  ZINC000963156778   -0.2600
      4 C4        -17.6809   -1.7456   57.2152 C.3     1  ZINC000963156778    0.1300
      5 N5        -16.3661   -1.0910   57.2401 N.3     1  ZINC000963156778   -0.5000
      6 C6        -15.4959   -1.6025   56.1502 C.3     1  ZINC000963156778    0.0600
      7 C7        -14.0604   -1.2677   56.6090 C.3     1  ZINC000963156778   -0.1700
      8 H8        -13.4922   -0.5554   56.0107 H       1  ZINC000963156778    0.1200
      9 C9        -14.1471   -1.1520   58.1447 C.3     1  ZINC000963156778   -0.1700
     10 H10       -13.6319   -0.3620   58.6911 H       1  ZINC000963156778    0.1200
     11 C11       -15.6278   -1.4268   58.4847 C.3     1  ZINC000963156778    0.0600
     12 C12       -13.3173   -2.2972   57.4626 C.3     1  ZINC000963156778    0.1200
     13 H13       -13.7244   -3.3074   57.5069 H       1  ZINC000963156778    0.1400
     14 N14       -11.8567   -2.2021   57.5255 N.am    1  ZINC000963156778   -0.7000
     15 C15       -11.1018   -2.7869   56.5744 C.2     1  ZINC000963156778    0.5100
     16 O16       -11.6317   -3.3906   55.6657 O.2     1  ZINC000963156778   -0.5000
     17 C17        -9.5993   -2.6905   56.6400 C.3     1  ZINC000963156778   -0.1300
     18 C18        -9.1248   -3.0697   58.0443 C.3     1  ZINC000963156778   -0.1100
     19 H19        -9.7874   -2.6462   58.7992 H       1  ZINC000963156778    0.1300
     20 C20        -7.6732   -2.6010   58.2718 C.3     1  ZINC000963156778   -0.1600
     21 C21        -6.9197   -3.8891   58.5215 C.2     1  ZINC000963156778    0.5300
     22 O22        -5.7319   -3.9752   58.7483 O.2     1  ZINC000963156778   -0.4800
     23 N23        -7.7726   -4.9188   58.4527 N.am    1  ZINC000963156778   -0.6900
     24 C24        -9.0429   -4.5734   58.1908 C.2     1  ZINC000963156778    0.5200
     25 O25        -9.9727   -5.3442   58.0861 O.2     1  ZINC000963156778   -0.4500
     26 S26       -18.4199    0.2321   59.2062 S.3     1  ZINC000963156778    0.4500
     27 N27       -19.5297   -0.0935   60.2607 N.2     1  ZINC000963156778   -0.2900
     28 N28       -19.9712   -1.2727   60.0553 N.2     1  ZINC000963156778   -0.2400
     29 H29       -20.6861   -3.3400   57.9954 H       1  ZINC000963156778    0.0900
     30 H30       -19.0273   -3.9138   58.2911 H       1  ZINC000963156778    0.0800
     31 H31       -20.2102   -3.8869   59.6210 H       1  ZINC000963156778    0.0800
     32 H32       -17.5496   -2.8267   57.2626 H       1  ZINC000963156778    0.1000
     33 H33       -18.2002   -1.4829   56.2935 H       1  ZINC000963156778    0.0700
     34 H34       -15.6182   -2.6800   56.0401 H       1  ZINC000963156778    0.0600
     35 H35       -15.7233   -1.0955   55.2125 H       1  ZINC000963156778    0.0800
     36 H36       -15.9544   -0.7874   59.3048 H       1  ZINC000963156778    0.1000
     37 H37       -15.7707   -2.4768   58.7400 H       1  ZINC000963156778    0.0500
     38 H38       -11.4330   -1.7183   58.2516 H       1  ZINC000963156778    0.4000
     39 H39        -9.1594   -3.3715   55.9116 H       1  ZINC000963156778    0.1000
     40 H40        -9.2906   -1.6694   56.4155 H       1  ZINC000963156778    0.1200
     41 H41        -7.2891   -2.0977   57.3845 H       1  ZINC000963156778    0.1200
     42 H42        -7.6132   -1.9466   59.1414 H       1  ZINC000963156778    0.1300
     43 H43        -7.4958   -5.8393   58.5829 H       1  ZINC000963156778    0.4200
@<TRIPOS>BOND
     1     1     2    1
     2     1    29    1
     3     1    30    1
     4     1    31    1
     5     2    28    1
     6     2     3    2
     7     3     4    1
     8     3    26    1
     9     4     5    1
    10     4    32    1
    11     4    33    1
    12     5    11    1
    13     5     6    1
    14     6     7    1
    15     6    34    1
    16     6    35    1
    17     7     8    1
    18     7    12    1
    19     7     9    1
    20     9    10    1
    21     9    11    1
    22     9    12    1
    23    11    36    1
    24    11    37    1
    25    12    13    1
    26    12    14    1
    27    14    15   am
    28    14    38    1
    29    15    16    2
    30    15    17    1
    31    17    18    1
    32    17    39    1
    33    17    40    1
    34    18    19    1
    35    18    24    1
    36    18    20    1
    37    20    21    1
    38    20    41    1
    39    20    42    1
    40    21    22    2
    41    21    23   am
    42    23    24   am
    43    23    43    1
    44    24    25    2
    45    26    27    1
    46    27    28    2
@<TRIPOS>SUBSTRUCTURE
     1 ZINC000963156778        1 TEMP              0 ****  ****    0 ROOT


##########                                Name:    ZINC000444811358
##########                DOCK_Rotatable_Bonds:                  11
##########                         Heavy_Atoms:                  27
##########                    Molecular_Weight:             374.455
##########                DOCK_Rotatable_Bonds:                  11
##########                       Formal_Charge:          0.00999966
##########                     HBond_Acceptors:                   6
##########                        HBond_Donors:                   2
##########                         Heavy_Atoms:                  27
##########                          Grid_Score:          -28.475803
##########                     Grid_vdw_energy:          -26.528286
##########                      Grid_es_energy:           -1.947518
##########           Internal_energy_repulsive:           24.338789

@<TRIPOS>MOLECULE
ZINC000444811358
 54 55 1 0 0
SMALL
USER_CHARGES


@<TRIPOS>ATOM
      1 C1         -8.3319    6.1959   50.8468 C.3     1  ZINC000444811358   -0.1100
      2 C2         -7.2539    5.1612   50.6508 C.ar    1  ZINC000444811358   -0.1300
      3 C3         -7.5907    3.8808   50.2537 C.ar    1  ZINC000444811358   -0.0700
      4 C4         -6.6051    2.9297   50.0736 C.ar    1  ZINC000444811358   -0.1500
      5 C5         -5.2740    3.2600   50.2912 C.ar    1  ZINC000444811358    0.1700
      6 N6         -4.2744    2.2980   50.1088 N.am    1  ZINC000444811358   -0.6800
      7 C7         -3.5457    2.2901   48.9750 C.2     1  ZINC000444811358    0.5200
      8 O8         -3.7563    3.1168   48.1129 O.2     1  ZINC000444811358   -0.5000
      9 C9         -2.4691    1.2540   48.7786 C.3     1  ZINC000444811358    0.0200
     10 N10        -1.1914    1.9226   48.4986 N.3     1  ZINC000444811358   -0.5000
     11 C11        -0.1090    1.3508   49.3106 C.3     1  ZINC000444811358    0.0200
     12 C12        -0.2033    1.8906   50.7392 C.3     1  ZINC000444811358    0.1100
     13 H13        -1.1893    1.6687   51.1471 H       1  ZINC000444811358    0.1200
     14 O14         0.7979    1.2715   51.5494 O.3     1  ZINC000444811358   -0.5400
     15 C15         0.0148    3.4050   50.7275 C.3     1  ZINC000444811358    0.0300
     16 O16         0.5566    3.8179   51.9837 O.3     1  ZINC000444811358   -0.3000
     17 C17        -0.2325    3.6578   53.0784 C.ar    1  ZINC000444811358    0.1300
     18 C18         0.3395    3.5513   54.3378 C.ar    1  ZINC000444811358   -0.2100
     19 C19        -0.4648    3.3891   55.4491 C.ar    1  ZINC000444811358   -0.0800
     20 C20        -1.8390    3.3326   55.3070 C.ar    1  ZINC000444811358   -0.1600
     21 C21        -2.4116    3.4381   54.0530 C.ar    1  ZINC000444811358   -0.0800
     22 C22        -1.6119    3.6065   52.9391 C.ar    1  ZINC000444811358   -0.1500
     23 C23        -0.8661    1.8585   47.0675 C.3     1  ZINC000444811358    0.0700
     24 C24         0.1561    2.9451   46.7276 C.3     1  ZINC000444811358   -0.1400
     25 C25        -0.2783    0.4846   46.7392 C.3     1  ZINC000444811358   -0.1900
     26 C26        -4.9366    4.5466   50.6898 C.ar    1  ZINC000444811358   -0.1500
     27 C27        -5.9268    5.4966   50.8636 C.ar    1  ZINC000444811358    0.1200
     28 F28        -5.6005    6.7489   51.2513 F       1  ZINC000444811358   -0.1300
     29 H29        -8.5040    6.7234   49.9086 H       1  ZINC000444811358    0.0700
     30 H30        -9.2530    5.7058   51.1623 H       1  ZINC000444811358    0.0700
     31 H31        -8.0185    6.9069   51.6111 H       1  ZINC000444811358    0.0700
     32 H32        -8.6258    3.6235   50.0843 H       1  ZINC000444811358    0.1400
     33 H33        -6.8698    1.9295   49.7638 H       1  ZINC000444811358    0.1300
     34 H34        -4.1059    1.6369   50.7982 H       1  ZINC000444811358    0.4100
     35 H35        -2.3740    0.6529   49.6829 H       1  ZINC000444811358    0.1300
     36 H36        -2.7334    0.6097   47.9401 H       1  ZINC000444811358    0.0700
     37 H37        -0.2009    0.2648   49.3258 H       1  ZINC000444811358    0.0500
     38 H38         0.8534    1.6280   48.8803 H       1  ZINC000444811358    0.1000
     39 H39         0.7556    0.3054   51.5571 H       1  ZINC000444811358    0.3700
     40 H40         0.7091    3.6660   49.9289 H       1  ZINC000444811358    0.0600
     41 H41        -0.9376    3.9079   50.5596 H       1  ZINC000444811358    0.0700
     42 H42         1.4129    3.5947   54.4492 H       1  ZINC000444811358    0.1300
     43 H43        -0.0200    3.3061   56.4297 H       1  ZINC000444811358    0.1200
     44 H44        -2.4662    3.2054   56.1770 H       1  ZINC000444811358    0.1200
     45 H45        -3.4853    3.3933   53.9445 H       1  ZINC000444811358    0.1300
     46 H46        -2.0596    3.6889   51.9598 H       1  ZINC000444811358    0.1300
     47 H47        -1.7718    2.0156   46.4817 H       1  ZINC000444811358    0.0900
     48 H48         1.1057    2.7143   47.2105 H       1  ZINC000444811358    0.0500
     49 H49         0.2980    2.9853   45.6477 H       1  ZINC000444811358    0.0600
     50 H50        -0.2071    3.9095   47.0826 H       1  ZINC000444811358    0.0700
     51 H51        -1.0065   -0.2895   46.9813 H       1  ZINC000444811358    0.0500
     52 H52        -0.0369    0.4371   45.6773 H       1  ZINC000444811358    0.0700
     53 H53         0.6274    0.3274   47.3250 H       1  ZINC000444811358    0.0600
     54 H54        -3.9022    4.8062   50.8601 H       1  ZINC000444811358    0.1500
@<TRIPOS>BOND
     1     1     2    1
     2     1    29    1
     3     1    30    1
     4     1    31    1
     5     2    27   ar
     6     2     3   ar
     7     3     4   ar
     8     3    32    1
     9     4     5   ar
    10     4    33    1
    11     5     6    1
    12     5    26   ar
    13     6     7   am
    14     6    34    1
    15     7     8    2
    16     7     9    1
    17     9    10    1
    18     9    35    1
    19     9    36    1
    20    10    11    1
    21    10    23    1
    22    11    12    1
    23    11    37    1
    24    11    38    1
    25    12    13    1
    26    12    14    1
    27    12    15    1
    28    14    39    1
    29    15    16    1
    30    15    40    1
    31    15    41    1
    32    16    17    1
    33    17    22   ar
    34    17    18   ar
    35    18    19   ar
    36    18    42    1
    37    19    20   ar
    38    19    43    1
    39    20    21   ar
    40    20    44    1
    41    21    22   ar
    42    21    45    1
    43    22    46    1
    44    23    24    1
    45    23    25    1
    46    23    47    1
    47    24    48    1
    48    24    49    1
    49    24    50    1
    50    25    51    1
    51    25    52    1
    52    25    53    1
    53    26    27   ar
    54    26    54    1
    55    27    28    1
@<TRIPOS>SUBSTRUCTURE
     1 ZINC000444811358        1 TEMP              0 ****  ****    0 ROOT


##########                                Name:    ZINC000350493047
##########                DOCK_Rotatable_Bonds:                   7
##########                         Heavy_Atoms:                  24
##########                    Molecular_Weight:             330.387
##########                DOCK_Rotatable_Bonds:                   7
##########                       Formal_Charge:          -0.0300002
##########                     HBond_Acceptors:                   7
##########                        HBond_Donors:                   3
##########                         Heavy_Atoms:                  24
##########                          Grid_Score:          -28.462210
##########                     Grid_vdw_energy:          -27.964220
##########                      Grid_es_energy:           -0.497989
##########           Internal_energy_repulsive:            6.610912

@<TRIPOS>MOLECULE
ZINC000350493047
 46 48 1 0 0
SMALL
USER_CHARGES


@<TRIPOS>ATOM
      1 C1         -2.3007    2.1402   45.8081 C.3     1  <0>        -0.1600
      2 C2         -1.9114    1.8580   47.2606 C.3     1  <0>         0.2600
      3 H3         -0.8526    2.0753   47.4017 H       1  <0>         0.1200
      4 N4         -2.1661    0.4488   47.5695 N.am    1  <0>        -0.7400
      5 C5         -1.1729   -0.4555   47.4595 C.2     1  <0>         0.7100
      6 N6         -1.4067   -1.7517   47.7452 N.am    1  <0>        -0.8600
      7 O7         -0.0657   -0.1019   47.1023 O.2     1  <0>        -0.5900
      8 C8         -2.7297    2.7293   48.1784 C.2     1  <0>         0.1700
      9 N9         -2.3117    3.7890   48.8054 N.2     1  <0>        -0.3800
     10 O10        -3.2067    4.2722   49.4662 O.3     1  <0>         0.0900
     11 C11        -4.3228    3.5411   49.3195 C.2     1  <0>         0.2400
     12 C12        -5.6319    3.7925   49.9546 C.ar    1  <0>        -0.0800
     13 C13        -6.5108    2.7327   50.1904 C.ar    1  <0>        -0.0200
     14 C14        -7.7313    2.9714   50.7832 C.ar    1  <0>        -0.2200
     15 C15        -8.0886    4.2643   51.1460 C.ar    1  <0>         0.1700
     16 O16        -9.2925    4.4954   51.7295 O.3     1  <0>        -0.3000
     17 C17       -10.4558    4.1371   50.9810 C.3     1  <0>         0.0800
     18 C18       -11.7044    4.6438   51.7056 C.3     1  <0>        -0.1500
     19 C19       -12.9500    4.2602   50.9041 C.3     1  <0>        -0.1200
     20 C20       -12.8760    4.8924   49.5128 C.3     1  <0>        -0.1300
     21 C21       -11.6273    4.3857   48.7882 C.3     1  <0>        -0.1200
     22 C22       -10.3817    4.7693   49.5897 C.3     1  <0>        -0.1200
     23 C23        -7.2169    5.3210   50.9134 C.ar    1  <0>        -0.1600
     24 C24        -5.9922    5.0899   50.3264 C.ar    1  <0>        -0.0300
     25 N25        -4.0229    2.5550   48.4916 N.2     1  <0>        -0.4700
     26 H26        -3.3595    1.9229   45.6670 H       1  <0>         0.0600
     27 H27        -2.1113    3.1887   45.5783 H       1  <0>         0.0700
     28 H28        -1.7090    1.5099   45.1444 H       1  <0>         0.0800
     29 H29        -3.0496    0.1665   47.8534 H       1  <0>         0.4000
     30 H30        -0.6915   -2.4022   47.6670 H       1  <0>         0.4000
     31 H31        -2.2903   -2.0340   48.0289 H       1  <0>         0.4200
     32 H32        -6.2341    1.7277   49.9082 H       1  <0>         0.1400
     33 H33        -8.4114    2.1527   50.9659 H       1  <0>         0.1400
     34 H34       -10.5064    3.0525   50.8851 H       1  <0>         0.0800
     35 H35       -11.7572    4.1934   52.6968 H       1  <0>         0.0700
     36 H36       -11.6539    5.7284   51.8015 H       1  <0>         0.0800
     37 H37       -13.0006    3.1756   50.8082 H       1  <0>         0.0600
     38 H38       -13.8396    4.6211   51.4203 H       1  <0>         0.0700
     39 H39       -13.7634    4.6191   48.9418 H       1  <0>         0.0700
     40 H40       -12.8254    5.9770   49.6087 H       1  <0>         0.0700
     41 H41       -11.6778    3.3011   48.6924 H       1  <0>         0.0700
     42 H42       -11.5745    4.8361   47.7971 H       1  <0>         0.0700
     43 H43       -10.3312    5.8539   49.6856 H       1  <0>         0.0800
     44 H44        -9.4922    4.4083   49.0734 H       1  <0>         0.0700
     45 H45        -7.4982    6.3245   51.1972 H       1  <0>         0.1400
     46 H46        -5.3151    5.9118   50.1463 H       1  <0>         0.1400
@<TRIPOS>BOND
     1     1     2    1
     2     1    26    1
     3     1    27    1
     4     1    28    1
     5     2     3    1
     6     2     4    1
     7     2     8    1
     8     4     5   am
     9     4    29    1
    10     5     6   am
    11     5     7    2
    12     6    30    1
    13     6    31    1
    14     8    25    1
    15     8     9    2
    16     9    10    1
    17    10    11    1
    18    11    12    1
    19    11    25    2
    20    12    24   ar
    21    12    13   ar
    22    13    14   ar
    23    13    32    1
    24    14    15   ar
    25    14    33    1
    26    15    16    1
    27    15    23   ar
    28    16    17    1
    29    17    22    1
    30    17    18    1
    31    17    34    1
    32    18    19    1
    33    18    35    1
    34    18    36    1
    35    19    20    1
    36    19    37    1
    37    19    38    1
    38    20    21    1
    39    20    39    1
    40    20    40    1
    41    21    22    1
    42    21    41    1
    43    21    42    1
    44    22    43    1
    45    22    44    1
    46    23    24   ar
    47    23    45    1
    48    24    46    1
@<TRIPOS>SUBSTRUCTURE
     1 <0>         1 TEMP              0 ****  ****    0 ROOT


##########                                Name:    ZINC001074839487
##########                DOCK_Rotatable_Bonds:                   7
##########                         Heavy_Atoms:                  25
##########                    Molecular_Weight:             344.454
##########                DOCK_Rotatable_Bonds:                   7
##########                       Formal_Charge:          -0.0500005
##########                     HBond_Acceptors:                   5
##########                        HBond_Donors:                   1
##########                         Heavy_Atoms:                  25
##########                          Grid_Score:          -28.456116
##########                     Grid_vdw_energy:          -27.207937
##########                      Grid_es_energy:           -1.248178
##########           Internal_energy_repulsive:           92.838303

@<TRIPOS>MOLECULE
ZINC001074839487
 53 55 1 0 0
SMALL
USER_CHARGES


@<TRIPOS>ATOM
      1 C1         -0.8507   -1.1171   47.7091 C.3     1  ZINC001074839487   -0.1500
      2 C2         -1.4712    0.2761   47.5869 C.3     1  ZINC001074839487   -0.1300
      3 C3         -0.9039    1.1846   48.6795 C.3     1  ZINC001074839487   -0.1100
      4 C4         -1.5338    2.5742   48.5652 C.3     1  ZINC001074839487   -0.1400
      5 C5         -3.0297    2.4611   48.7083 C.2     1  ZINC001074839487    0.5100
      6 O6         -3.7166    2.2345   47.7348 O.2     1  ZINC001074839487   -0.5400
      7 N7         -3.6042    2.6115   49.9181 N.am    1  ZINC001074839487   -0.7300
      8 C8         -5.0582    2.4997   50.0575 C.3     1  ZINC001074839487    0.1400
      9 H9         -5.4685    1.9901   49.1857 H       1  ZINC001074839487    0.0900
     10 C10        -5.3894    1.6988   51.3190 C.3     1  ZINC001074839487   -0.1500
     11 C11        -4.7820    2.3997   52.5382 C.3     1  ZINC001074839487    0.0700
     12 N12        -5.2520    3.7915   52.5663 N.am    1  ZINC001074839487   -0.6000
     13 C13        -5.8439    4.2943   53.6679 C.2     1  ZINC001074839487    0.5600
     14 O14        -6.2283    5.4473   53.6787 O.2     1  ZINC001074839487   -0.5200
     15 C15        -6.0255    3.4433   54.8631 C.ar    1  ZINC001074839487   -0.1300
     16 C16        -5.1271    3.5294   55.9276 C.ar    1  ZINC001074839487   -0.1000
     17 C17        -5.3013    2.7325   57.0412 C.ar    1  ZINC001074839487   -0.1000
     18 C18        -6.3625    1.8510   57.1031 C.ar    1  ZINC001074839487   -0.1100
     19 C19        -6.8135    0.8680   58.1587 C.3     1  ZINC001074839487    0.0900
     20 O20        -7.7069   -0.0441   57.4945 O.3     1  ZINC001074839487   -0.3600
     21 C21        -8.2887    0.7196   56.4222 C.3     1  ZINC001074839487    0.0900
     22 C22        -7.2595    1.7606   56.0477 C.ar    1  ZINC001074839487   -0.1400
     23 C23        -7.1001    2.5540   54.9340 C.ar    1  ZINC001074839487   -0.0400
     24 C24        -5.0651    4.6246   51.3707 C.3     1  ZINC001074839487    0.1500
     25 H25        -4.0007    4.7890   51.2027 H       1  ZINC001074839487    0.0700
     26 C26        -5.7700    5.9684   51.5665 C.3     1  ZINC001074839487   -0.1400
     27 C27        -5.6692    3.8988   50.1645 C.3     1  ZINC001074839487   -0.1400
     28 H28         0.2309   -1.0443   47.5957 H       1  ZINC001074839487    0.0500
     29 H29        -1.2549   -1.7644   46.9308 H       1  ZINC001074839487    0.0500
     30 H30        -1.0861   -1.5352   48.6878 H       1  ZINC001074839487    0.0500
     31 H31        -1.2359    0.6941   46.6082 H       1  ZINC001074839487    0.0600
     32 H32        -2.5529    0.2033   47.7004 H       1  ZINC001074839487    0.0600
     33 H33        -1.1315    0.7619   49.6580 H       1  ZINC001074839487    0.0700
     34 H34         0.1767    1.2646   48.5606 H       1  ZINC001074839487    0.0700
     35 H35        -1.1410    3.2170   49.3529 H       1  ZINC001074839487    0.0900
     36 H36        -1.2933    3.0032   47.5925 H       1  ZINC001074839487    0.0900
     37 H37        -3.0549    2.7939   50.6965 H       1  ZINC001074839487    0.4000
     38 H38        -6.4712    1.6363   51.4366 H       1  ZINC001074839487    0.0800
     39 H39        -4.9739    0.6949   51.2319 H       1  ZINC001074839487    0.0800
     40 H40        -5.0975    1.8890   53.4480 H       1  ZINC001074839487    0.1200
     41 H41        -3.6946    2.3827   52.4654 H       1  ZINC001074839487    0.0700
     42 H42        -4.2970    4.2188   55.8804 H       1  ZINC001074839487    0.1500
     43 H43        -4.6067    2.7987   57.8655 H       1  ZINC001074839487    0.1400
     44 H44        -5.9558    0.3282   58.5601 H       1  ZINC001074839487    0.1000
     45 H45        -7.3372    1.3906   58.9592 H       1  ZINC001074839487    0.0800
     46 H46        -8.4960    0.0727   55.5698 H       1  ZINC001074839487    0.1000
     47 H47        -9.2057    1.2026   56.7598 H       1  ZINC001074839487    0.0800
     48 H48        -7.8016    2.4860   54.1156 H       1  ZINC001074839487    0.1400
     49 H49        -5.2699    6.5293   52.3561 H       1  ZINC001074839487    0.0800
     50 H50        -5.7326    6.5371   50.6373 H       1  ZINC001074839487    0.0500
     51 H51        -6.8095    5.7962   51.8455 H       1  ZINC001074839487    0.0700
     52 H52        -5.4529    4.4606   49.2559 H       1  ZINC001074839487    0.0900
     53 H53        -6.7484    3.8155   50.2931 H       1  ZINC001074839487    0.0900
@<TRIPOS>BOND
     1     1     2    1
     2     1    28    1
     3     1    29    1
     4     1    30    1
     5     2     3    1
     6     2    31    1
     7     2    32    1
     8     3     4    1
     9     3    33    1
    10     3    34    1
    11     4     5    1
    12     4    35    1
    13     4    36    1
    14     5     6    2
    15     5     7   am
    16     7     8    1
    17     7    37    1
    18     8     9    1
    19     8    27    1
    20     8    10    1
    21    10    11    1
    22    10    38    1
    23    10    39    1
    24    11    12    1
    25    11    40    1
    26    11    41    1
    27    12    13   am
    28    12    24    1
    29    13    14    2
    30    13    15    1
    31    15    23   ar
    32    15    16   ar
    33    16    17   ar
    34    16    42    1
    35    17    18   ar
    36    17    43    1
    37    18    22   ar
    38    18    19    1
    39    19    20    1
    40    19    44    1
    41    19    45    1
    42    20    21    1
    43    21    22    1
    44    21    46    1
    45    21    47    1
    46    22    23   ar
    47    23    48    1
    48    24    25    1
    49    24    26    1
    50    24    27    1
    51    26    49    1
    52    26    50    1
    53    26    51    1
    54    27    52    1
    55    27    53    1
@<TRIPOS>SUBSTRUCTURE
     1 ZINC001074839487        1 TEMP              0 ****  ****    0 ROOT


##########                                Name:    ZINC000288921983
##########                DOCK_Rotatable_Bonds:                   6
##########                         Heavy_Atoms:                  26
##########                    Molecular_Weight:             356.428
##########                DOCK_Rotatable_Bonds:                   6
##########                       Formal_Charge:           0.0199997
##########                     HBond_Acceptors:                   8
##########                        HBond_Donors:                   1
##########                         Heavy_Atoms:                  26
##########                          Grid_Score:          -28.455767
##########                     Grid_vdw_energy:          -27.124680
##########                      Grid_es_energy:           -1.331087
##########           Internal_energy_repulsive:           61.300133

@<TRIPOS>MOLECULE
ZINC000288921983
 50 53 1 0 0
SMALL
USER_CHARGES


@<TRIPOS>ATOM
      1 C1         -7.1753    0.4465   50.8750 C.3     1  ZINC000288921983   -0.1400
      2 C2         -6.3195    1.6276   51.3371 C.3     1  ZINC000288921983   -0.0500
      3 C3         -6.5552    1.8749   52.8049 C.ar    1  ZINC000288921983    0.3000
      4 N4         -7.7235    1.5599   53.3272 N.ar    1  ZINC000288921983   -0.5000
      5 C5         -7.9699    1.7612   54.6111 C.ar    1  ZINC000288921983    0.1300
      6 C6         -6.9736    2.3139   55.4114 C.ar    1  ZINC000288921983    0.0500
      7 N7         -7.1924    2.5431   56.7751 N.am    1  ZINC000288921983   -0.6700
      8 C8         -7.4944    1.5141   57.5914 C.2     1  ZINC000288921983    0.7100
      9 O9         -7.5771    0.3868   57.1436 O.2     1  ZINC000288921983   -0.5500
     10 N10        -7.7050    1.7348   58.9042 N.am    1  ZINC000288921983   -0.6200
     11 C11        -7.6089    3.0914   59.4601 C.3     1  ZINC000288921983    0.1100
     12 C12        -8.9025    3.4066   60.2178 C.3     1  ZINC000288921983   -0.1400
     13 C13        -9.1563    2.3163   61.2613 C.3     1  ZINC000288921983   -0.1200
     14 C14        -9.3238    0.9662   60.5604 C.3     1  ZINC000288921983   -0.1300
     15 C15        -8.0409    0.6242   59.8055 C.3     1  ZINC000288921983    0.2700
     16 H16        -7.2269    0.4786   60.5156 H       1  ZINC000288921983    0.1100
     17 C17        -8.2460   -0.6370   59.0064 C.2     1  ZINC000288921983    0.1700
     18 N18        -7.3901   -1.6092   58.8674 N.2     1  ZINC000288921983   -0.2500
     19 N19        -7.9001   -2.5232   58.1191 N.2     1  ZINC000288921983   -0.2700
     20 C20        -9.0987   -2.1652   57.7553 C.2     1  ZINC000288921983    0.1800
     21 C21       -10.0363   -2.9523   56.8765 C.3     1  ZINC000288921983   -0.0300
     22 C22       -11.2029   -3.5977   57.6428 C.3     1  ZINC000288921983   -0.1200
     23 C23       -11.9818   -2.2946   57.3976 C.3     1  ZINC000288921983   -0.1400
     24 C24       -11.0874   -2.0846   56.1643 C.3     1  ZINC000288921983   -0.1200
     25 O25        -9.3473   -0.9675   58.3113 O.3     1  ZINC000288921983   -0.2200
     26 C26        -5.7540    2.6321   54.8201 C.ar    1  ZINC000288921983    0.1600
     27 N27        -5.5851    2.3947   53.5299 N.ar    1  ZINC000288921983   -0.5000
     28 H28        -7.0048    0.2677   49.8134 H       1  ZINC000288921983    0.0700
     29 H29        -6.9024   -0.4437   51.4418 H       1  ZINC000288921983    0.0600
     30 H30        -8.2283    0.6741   51.0406 H       1  ZINC000288921983    0.0600
     31 H31        -5.2664    1.4001   51.1715 H       1  ZINC000288921983    0.0900
     32 H32        -6.5924    2.5178   50.7703 H       1  ZINC000288921983    0.0900
     33 H33        -8.9297    1.5011   55.0322 H       1  ZINC000288921983    0.1700
     34 H34        -7.1265    3.4426   57.1323 H       1  ZINC000288921983    0.4100
     35 H35        -6.7621    3.1469   60.1441 H       1  ZINC000288921983    0.0800
     36 H36        -7.4753    3.8093   58.6508 H       1  ZINC000288921983    0.0800
     37 H37        -8.8066    4.3715   60.7157 H       1  ZINC000288921983    0.0900
     38 H38        -9.7361    3.4400   59.5162 H       1  ZINC000288921983    0.0700
     39 H39        -8.3112    2.2668   61.9477 H       1  ZINC000288921983    0.0700
     40 H40       -10.0633    2.5511   61.8185 H       1  ZINC000288921983    0.0800
     41 H41        -9.5277    0.1940   61.3023 H       1  ZINC000288921983    0.0900
     42 H42       -10.1534    1.0225   59.8557 H       1  ZINC000288921983    0.0900
     43 H43        -9.5151   -3.6408   56.2113 H       1  ZINC000288921983    0.1000
     44 H44       -11.6310   -4.4637   57.1380 H       1  ZINC000288921983    0.1000
     45 H45       -10.9844   -3.7845   58.6942 H       1  ZINC000288921983    0.0800
     46 H46       -13.0321   -2.4531   57.1533 H       1  ZINC000288921983    0.0700
     47 H47       -11.8354   -1.5454   58.1757 H       1  ZINC000288921983    0.1000
     48 H48       -10.7756   -1.0499   56.0221 H       1  ZINC000288921983    0.0700
     49 H49       -11.4839   -2.5370   55.2553 H       1  ZINC000288921983    0.1000
     50 H50        -4.9562    3.0627   55.4071 H       1  ZINC000288921983    0.1800
@<TRIPOS>BOND
     1     1     2    1
     2     1    28    1
     3     1    29    1
     4     1    30    1
     5     2     3    1
     6     2    31    1
     7     2    32    1
     8     3    27   ar
     9     3     4   ar
    10     4     5   ar
    11     5     6   ar
    12     5    33    1
    13     6     7    1
    14     6    26   ar
    15     7     8   am
    16     7    34    1
    17     8     9    2
    18     8    10   am
    19    10    15    1
    20    10    11    1
    21    11    12    1
    22    11    35    1
    23    11    36    1
    24    12    13    1
    25    12    37    1
    26    12    38    1
    27    13    14    1
    28    13    39    1
    29    13    40    1
    30    14    15    1
    31    14    41    1
    32    14    42    1
    33    15    16    1
    34    15    17    1
    35    17    25    1
    36    17    18    2
    37    18    19    1
    38    19    20    2
    39    20    21    1
    40    20    25    1
    41    21    24    1
    42    21    22    1
    43    21    43    1
    44    22    23    1
    45    22    44    1
    46    22    45    1
    47    23    24    1
    48    23    46    1
    49    23    47    1
    50    24    48    1
    51    24    49    1
    52    26    27   ar
    53    26    50    1
@<TRIPOS>SUBSTRUCTURE
     1 ZINC000288921983        1 TEMP              0 ****  ****    0 ROOT


##########                                Name:    ZINC000517001504
##########                DOCK_Rotatable_Bonds:                   5
##########                         Heavy_Atoms:                  29
##########                    Molecular_Weight:             403.401
##########                DOCK_Rotatable_Bonds:                   5
##########                       Formal_Charge:          -0.0200002
##########                     HBond_Acceptors:                   7
##########                        HBond_Donors:                   0
##########                         Heavy_Atoms:                  29
##########                          Grid_Score:          -28.451614
##########                     Grid_vdw_energy:          -28.321424
##########                      Grid_es_energy:           -0.130189
##########           Internal_energy_repulsive:           33.480183

@<TRIPOS>MOLECULE
ZINC000517001504
 49 52 1 0 0
SMALL
USER_CHARGES


@<TRIPOS>ATOM
      1 O1         -1.2644    2.2078   51.4593 O.2     1  ZINC000517001504   -0.5200
      2 C2         -1.9032    2.3604   50.4397 C.2     1  ZINC000517001504    0.5400
      3 N3         -3.2433    2.2172   50.4561 N.am    1  ZINC000517001504   -0.6100
      4 C4         -4.0400    2.4033   49.2330 C.3     1  ZINC000517001504    0.0600
      5 C5         -5.1875    3.3703   49.5461 C.3     1  ZINC000517001504    0.0500
      6 O6         -5.8934    2.9056   50.6991 O.3     1  ZINC000517001504   -0.3700
      7 C7         -5.1044    2.8627   51.8905 C.3     1  ZINC000517001504    0.1200
      8 H8         -4.7000    3.8540   52.0953 H       1  ZINC000517001504    0.0800
      9 C9         -5.9632    2.4205   53.0473 C.ar    1  ZINC000517001504   -0.0600
     10 C10        -5.5644    2.6837   54.3444 C.ar    1  ZINC000517001504   -0.0900
     11 C11        -6.3521    2.2782   55.4054 C.ar    1  ZINC000517001504   -0.0700
     12 C12        -7.5389    1.6098   55.1693 C.ar    1  ZINC000517001504   -0.1800
     13 C13        -8.3975    1.1672   56.3261 C.3     1  ZINC000517001504    0.5100
     14 F14        -7.8944    1.7084   57.5140 F       1  ZINC000517001504   -0.1800
     15 F15        -9.7094    1.6114   56.1299 F       1  ZINC000517001504   -0.1800
     16 F16        -8.3854   -0.2294   56.4082 F       1  ZINC000517001504   -0.1800
     17 C17        -7.9384    1.3477   53.8722 C.ar    1  ZINC000517001504   -0.0700
     18 C18        -7.1525    1.7567   52.8110 C.ar    1  ZINC000517001504   -0.1000
     19 C19        -3.9520    1.8641   51.6963 C.3     1  ZINC000517001504    0.0900
     20 C20        -1.1992    2.7163   49.1556 C.3     1  ZINC000517001504   -0.0600
     21 C21        -1.3786    1.6752   48.0809 C.ar    1  ZINC000517001504   -0.0700
     22 C22        -1.9867    2.0128   46.8863 C.ar    1  ZINC000517001504   -0.1200
     23 C23        -2.1512    1.0578   45.9005 C.ar    1  ZINC000517001504   -0.1100
     24 C24        -1.7074   -0.2346   46.1091 C.ar    1  ZINC000517001504   -0.1100
     25 C25        -1.0985   -0.5718   47.3034 C.ar    1  ZINC000517001504   -0.1100
     26 C26        -0.9301    0.3841   48.2875 C.ar    1  ZINC000517001504   -0.1000
     27 C27        -1.4740    4.1528   48.6785 C.3     1  ZINC000517001504   -0.1600
     28 C28        -0.2700    4.5649   49.5021 C.2     1  ZINC000517001504    0.3600
     29 O29         0.1030    5.5783   50.0426 O.2     1  ZINC000517001504   -0.4100
     30 C30         0.2625    3.1535   49.3537 C.3     1  ZINC000517001504   -0.1900
     31 H31        -3.4122    2.8210   48.4459 H       1  ZINC000517001504    0.1000
     32 H32        -4.4456    1.4446   48.9098 H       1  ZINC000517001504    0.0800
     33 H33        -4.7834    4.3634   49.7423 H       1  ZINC000517001504    0.0600
     34 H34        -5.8681    3.4150   48.6959 H       1  ZINC000517001504    0.1100
     35 H35        -4.6372    3.2059   54.5288 H       1  ZINC000517001504    0.1400
     36 H36        -6.0402    2.4832   56.4189 H       1  ZINC000517001504    0.1400
     37 H37        -8.8657    0.8259   53.6877 H       1  ZINC000517001504    0.1400
     38 H38        -7.4646    1.5520   51.7975 H       1  ZINC000517001504    0.1400
     39 H39        -4.3514    0.8526   51.6222 H       1  ZINC000517001504    0.0800
     40 H40        -3.2655    1.9272   52.5405 H       1  ZINC000517001504    0.1100
     41 H41        -2.3335    3.0225   46.7233 H       1  ZINC000517001504    0.1300
     42 H42        -2.6270    1.3214   44.9674 H       1  ZINC000517001504    0.1300
     43 H43        -1.8366   -0.9808   45.3392 H       1  ZINC000517001504    0.1300
     44 H44        -0.7519   -1.5817   47.4666 H       1  ZINC000517001504    0.1300
     45 H45        -0.4543    0.1206   49.2206 H       1  ZINC000517001504    0.1200
     46 H46        -1.3384    4.2911   47.6058 H       1  ZINC000517001504    0.1300
     47 H47        -2.4154    4.5627   49.0442 H       1  ZINC000517001504    0.1100
     48 H48         0.7177    2.7597   50.2625 H       1  ZINC000517001504    0.1000
     49 H49         0.8852    3.0114   48.4705 H       1  ZINC000517001504    0.1400
@<TRIPOS>BOND
     1     1     2    2
     2     2     3   am
     3     2    20    1
     4     3    19    1
     5     3     4    1
     6     4     5    1
     7     4    31    1
     8     4    32    1
     9     5     6    1
    10     5    33    1
    11     5    34    1
    12     6     7    1
    13     7     8    1
    14     7     9    1
    15     7    19    1
    16     9    18   ar
    17     9    10   ar
    18    10    11   ar
    19    10    35    1
    20    11    12   ar
    21    11    36    1
    22    12    13    1
    23    12    17   ar
    24    13    14    1
    25    13    15    1
    26    13    16    1
    27    17    18   ar
    28    17    37    1
    29    18    38    1
    30    19    39    1
    31    19    40    1
    32    20    30    1
    33    20    21    1
    34    20    27    1
    35    21    26   ar
    36    21    22   ar
    37    22    23   ar
    38    22    41    1
    39    23    24   ar
    40    23    42    1
    41    24    25   ar
    42    24    43    1
    43    25    26   ar
    44    25    44    1
    45    26    45    1
    46    27    28    1
    47    27    46    1
    48    27    47    1
    49    28    29    2
    50    28    30    1
    51    30    48    1
    52    30    49    1
@<TRIPOS>SUBSTRUCTURE
     1 ZINC000517001504        1 TEMP              0 ****  ****    0 ROOT


##########                                Name:    ZINC001018118384
##########                DOCK_Rotatable_Bonds:                   5
##########                         Heavy_Atoms:                  25
##########                    Molecular_Weight:             347.374
##########                DOCK_Rotatable_Bonds:                   5
##########                       Formal_Charge:           0.0299997
##########                     HBond_Acceptors:                   9
##########                        HBond_Donors:                   2
##########                         Heavy_Atoms:                  25
##########                          Grid_Score:          -28.434050
##########                     Grid_vdw_energy:          -25.956728
##########                      Grid_es_energy:           -2.477321
##########           Internal_energy_repulsive:           97.334648

@<TRIPOS>MOLECULE
ZINC001018118384
 46 48 1 0 0
SMALL
USER_CHARGES


@<TRIPOS>ATOM
      1 C1         -7.4831    3.2580   55.0041 C.3     1  ZINC001018118384   -0.0700
      2 C2         -6.0111    3.1913   54.6879 C.2     1  ZINC001018118384    0.2200
      3 N3         -5.4352    3.7310   53.6528 N.2     1  ZINC001018118384   -0.4600
      4 C4         -4.1051    3.4634   53.7013 C.2     1  ZINC001018118384   -0.0700
      5 C5         -3.0941    3.8926   52.7195 C.2     1  ZINC001018118384    0.6100
      6 O6         -2.4948    4.9385   52.8814 O.2     1  ZINC001018118384   -0.5400
      7 N7         -2.8333    3.1264   51.6418 N.am    1  ZINC001018118384   -0.5900
      8 C8         -3.5533    1.8634   51.4294 C.3     1  ZINC001018118384    0.0700
      9 C9         -4.1727    1.8786   50.0284 C.3     1  ZINC001018118384    0.1300
     10 H10        -4.6281    0.9101   49.8214 H       1  ZINC001018118384    0.1100
     11 N11        -5.1956    2.9250   49.9573 N.am    1  ZINC001018118384   -0.7000
     12 C12        -6.4915    2.5909   49.7983 C.2     1  ZINC001018118384    0.6000
     13 O13        -6.8114    1.4220   49.7123 O.2     1  ZINC001018118384   -0.4900
     14 C14        -7.5265    3.6495   49.7282 C.2     1  ZINC001018118384    0.0300
     15 C15        -7.4364    4.9046   50.2524 C.2     1  ZINC001018118384   -0.2300
     16 C16        -8.6785    5.5103   49.9116 C.2     1  ZINC001018118384    0.4800
     17 O17        -9.0431    6.6434   50.1782 O.2     1  ZINC001018118384   -0.5200
     18 N18        -9.3679    4.5719   49.2321 N.am    1  ZINC001018118384   -0.4500
     19 C19       -10.7128    4.7630   48.6833 C.3     1  ZINC001018118384    0.1100
     20 O20        -8.7244    3.5531   49.1317 O.3     1  ZINC001018118384    0.0000
     21 C21        -3.0799    2.1606   48.9948 C.3     1  ZINC001018118384   -0.1300
     22 C22        -2.4623    3.5346   49.2649 C.3     1  ZINC001018118384   -0.1300
     23 C23        -1.8279    3.5411   50.6540 C.3     1  ZINC001018118384    0.1400
     24 H24        -0.9915    2.8424   50.6771 H       1  ZINC001018118384    0.0700
     25 C25        -1.3287    4.9495   50.9833 C.3     1  ZINC001018118384   -0.1400
     26 C26        -3.8752    2.7248   54.8251 C.2     1  ZINC001018118384    0.0400
     27 N27        -5.0703    2.5634   55.4404 N.pl3   1  ZINC001018118384   -0.5600
     28 H28        -7.6846    4.1403   55.6116 H       1  ZINC001018118384    0.0900
     29 H29        -8.0517    3.3183   54.0762 H       1  ZINC001018118384    0.1000
     30 H30        -7.7775    2.3637   55.5534 H       1  ZINC001018118384    0.0800
     31 H31        -2.8582    1.0280   51.5125 H       1  ZINC001018118384    0.0800
     32 H32        -4.3409    1.7618   52.1761 H       1  ZINC001018118384    0.1500
     33 H33        -4.9401    3.8584   50.0247 H       1  ZINC001018118384    0.4100
     34 H34        -6.6131    5.3387   50.8002 H       1  ZINC001018118384    0.1900
     35 H35       -10.6388    5.1488   47.6665 H       1  ZINC001018118384    0.0800
     36 H36       -11.2398    3.8089   48.6726 H       1  ZINC001018118384    0.0900
     37 H37       -11.2603    5.4735   49.3026 H       1  ZINC001018118384    0.1100
     38 H38        -2.3073    1.3950   49.0653 H       1  ZINC001018118384    0.0900
     39 H39        -3.5137    2.1476   47.9950 H       1  ZINC001018118384    0.0800
     40 H40        -1.7002    3.7448   48.5144 H       1  ZINC001018118384    0.0800
     41 H41        -3.2389    4.2979   49.2190 H       1  ZINC001018118384    0.0600
     42 H42        -2.1638    5.6490   50.9451 H       1  ZINC001018118384    0.0700
     43 H43        -0.8943    4.9565   51.9830 H       1  ZINC001018118384    0.0800
     44 H44        -0.5726    5.2462   50.2565 H       1  ZINC001018118384    0.0400
     45 H45        -2.9218    2.3454   55.1618 H       1  ZINC001018118384    0.1900
     46 H46        -5.2276    2.0803   56.2666 H       1  ZINC001018118384    0.4300
@<TRIPOS>BOND
     1     1     2    1
     2     1    28    1
     3     1    29    1
     4     1    30    1
     5     2    27    1
     6     2     3    2
     7     3     4    1
     8     4     5    1
     9     4    26    2
    10     5     6    2
    11     5     7   am
    12     7    23    1
    13     7     8    1
    14     8     9    1
    15     8    31    1
    16     8    32    1
    17     9    10    1
    18     9    11    1
    19     9    21    1
    20    11    12   am
    21    11    33    1
    22    12    13    2
    23    12    14    1
    24    14    20    1
    25    14    15    2
    26    15    16    1
    27    15    34    1
    28    16    17    2
    29    16    18   am
    30    18    19    1
    31    18    20    1
    32    19    35    1
    33    19    36    1
    34    19    37    1
    35    21    22    1
    36    21    38    1
    37    21    39    1
    38    22    23    1
    39    22    40    1
    40    22    41    1
    41    23    24    1
    42    23    25    1
    43    25    42    1
    44    25    43    1
    45    25    44    1
    46    26    27    1
    47    26    45    1
    48    27    46    1
@<TRIPOS>SUBSTRUCTURE
     1 ZINC001018118384        1 TEMP              0 ****  ****    0 ROOT


##########                                Name:    ZINC001009984555
##########                DOCK_Rotatable_Bonds:                   7
##########                         Heavy_Atoms:                  23
##########                    Molecular_Weight:             338.446
##########                DOCK_Rotatable_Bonds:                   7
##########                       Formal_Charge:           0.0400002
##########                     HBond_Acceptors:                   6
##########                        HBond_Donors:                   1
##########                         Heavy_Atoms:                  23
##########                          Grid_Score:          -28.421778
##########                     Grid_vdw_energy:          -26.572903
##########                      Grid_es_energy:           -1.848876
##########           Internal_energy_repulsive:           11.362089

@<TRIPOS>MOLECULE
ZINC001009984555
 46 47 1 0 0
SMALL
USER_CHARGES


@<TRIPOS>ATOM
      1 C1        -13.6908   -3.6587   57.5362 C.3     1  ZINC001009984555   -0.1400
      2 S2        -12.2363   -2.6228   57.2171 S.3     1  ZINC001009984555   -0.1800
      3 C3        -10.9116   -3.4982   58.0943 C.3     1  ZINC001009984555   -0.1300
      4 C4         -9.6147   -2.7503   57.9210 C.2     1  ZINC001009984555    0.5500
      5 O5         -8.8340   -3.0830   57.0545 O.2     1  ZINC001009984555   -0.5100
      6 N6         -9.3225   -1.7118   58.7288 N.am    1  ZINC001009984555   -0.6100
      7 C7        -10.1730   -1.2083   59.8226 C.3     1  ZINC001009984555    0.1000
      8 C8         -9.1950   -0.4943   60.7887 C.3     1  ZINC001009984555   -0.1100
      9 H9         -8.6935   -1.2119   61.4380 H       1  ZINC001009984555    0.1000
     10 C10        -9.9190    0.5731   61.6119 C.3     1  ZINC001009984555    0.1300
     11 N11        -8.9755    1.1927   62.5458 N.am    1  ZINC001009984555   -0.7300
     12 C12        -9.3106    1.3418   63.8428 C.2     1  ZINC001009984555    0.5600
     13 O13       -10.3952    0.9609   64.2378 O.2     1  ZINC001009984555   -0.5200
     14 C14        -8.3591    1.9686   64.7849 C.ar    1  ZINC001009984555   -0.1200
     15 C15        -8.1865    3.3535   64.7885 C.ar    1  ZINC001009984555   -0.0900
     16 C16        -7.2972    3.9336   65.6697 C.ar    1  ZINC001009984555   -0.1000
     17 C17        -6.5764    3.1463   66.5490 C.ar    1  ZINC001009984555   -0.1200
     18 C18        -6.7422    1.7703   66.5515 C.ar    1  ZINC001009984555    0.0900
     19 F19        -6.0347    1.0072   67.4132 F       1  ZINC001009984555   -0.1300
     20 C20        -7.6343    1.1784   65.6781 C.ar    1  ZINC001009984555   -0.0500
     21 C21        -7.8145   -0.3178   65.6811 C.3     1  ZINC001009984555   -0.1200
     22 C22        -8.1932    0.1526   59.7960 C.3     1  ZINC001009984555   -0.1200
     23 C23        -8.0999   -0.8975   58.6691 C.3     1  ZINC001009984555    0.1400
     24 H24        -8.0395   -0.3987   57.7018 H       1  ZINC001009984555    0.0800
     25 C25        -6.8658   -1.7772   58.8786 C.3     1  ZINC001009984555   -0.1700
     26 H26       -13.8668   -3.7168   58.6103 H       1  ZINC001009984555    0.0800
     27 H27       -14.5621   -3.2217   57.0484 H       1  ZINC001009984555    0.1100
     28 H28       -13.5175   -4.6598   57.1417 H       1  ZINC001009984555    0.0800
     29 H29       -11.1566   -3.5595   59.1545 H       1  ZINC001009984555    0.1100
     30 H30       -10.8083   -4.5037   57.6864 H       1  ZINC001009984555    0.1100
     31 H31       -10.9085   -0.5023   59.4370 H       1  ZINC001009984555    0.0800
     32 H32       -10.6696   -2.0361   60.3288 H       1  ZINC001009984555    0.0800
     33 H33       -10.3229    1.3347   60.9448 H       1  ZINC001009984555    0.0800
     34 H34       -10.7328    0.1110   62.1707 H       1  ZINC001009984555    0.0800
     35 H35        -8.1095    1.4956   62.2308 H       1  ZINC001009984555    0.4000
     36 H36        -8.7478    3.9702   64.1021 H       1  ZINC001009984555    0.1300
     37 H37        -7.1635    5.0053   65.6725 H       1  ZINC001009984555    0.1400
     38 H38        -5.8811    3.6055   67.2361 H       1  ZINC001009984555    0.1400
     39 H39        -8.6825   -0.5779   66.2870 H       1  ZINC001009984555    0.0800
     40 H40        -7.9663   -0.6675   64.6600 H       1  ZINC001009984555    0.1000
     41 H41        -6.9253   -0.7901   66.0986 H       1  ZINC001009984555    0.0600
     42 H42        -8.5822    1.0975   59.4165 H       1  ZINC001009984555    0.0900
     43 H43        -7.2211    0.2961   60.2678 H       1  ZINC001009984555    0.0900
     44 H44        -6.9415   -2.2865   59.8394 H       1  ZINC001009984555    0.0600
     45 H45        -6.8064   -2.5160   58.0795 H       1  ZINC001009984555    0.0700
     46 H46        -5.9703   -1.1559   58.8664 H       1  ZINC001009984555    0.0700
@<TRIPOS>BOND
     1     1     2    1
     2     1    26    1
     3     1    27    1
     4     1    28    1
     5     2     3    1
     6     3     4    1
     7     3    29    1
     8     3    30    1
     9     4     5    2
    10     4     6   am
    11     6    23    1
    12     6     7    1
    13     7     8    1
    14     7    31    1
    15     7    32    1
    16     8     9    1
    17     8    10    1
    18     8    22    1
    19    10    11    1
    20    10    33    1
    21    10    34    1
    22    11    12   am
    23    11    35    1
    24    12    13    2
    25    12    14    1
    26    14    20   ar
    27    14    15   ar
    28    15    16   ar
    29    15    36    1
    30    16    17   ar
    31    16    37    1
    32    17    18   ar
    33    17    38    1
    34    18    19    1
    35    18    20   ar
    36    20    21    1
    37    21    39    1
    38    21    40    1
    39    21    41    1
    40    22    23    1
    41    22    42    1
    42    22    43    1
    43    23    24    1
    44    23    25    1
    45    25    44    1
    46    25    45    1
    47    25    46    1
@<TRIPOS>SUBSTRUCTURE
     1 ZINC001009984555        1 TEMP              0 ****  ****    0 ROOT


##########                                Name:    ZINC001067316277
##########                DOCK_Rotatable_Bonds:                   5
##########                         Heavy_Atoms:                  24
##########                    Molecular_Weight:             345.469
##########                DOCK_Rotatable_Bonds:                   5
##########                       Formal_Charge:          -0.0200007
##########                     HBond_Acceptors:                   7
##########                        HBond_Donors:                   2
##########                         Heavy_Atoms:                  24
##########                          Grid_Score:          -28.414507
##########                     Grid_vdw_energy:          -27.506941
##########                      Grid_es_energy:           -0.907567
##########           Internal_energy_repulsive:            8.564368

@<TRIPOS>MOLECULE
ZINC001067316277
 47 49 1 0 0
SMALL
USER_CHARGES


@<TRIPOS>ATOM
      1 C1         -7.8801   -0.0068   59.0377 C.3     1  ZINC001067316277   -0.1400
      2 S2         -6.7661   -1.3905   58.6910 S.3     1  ZINC001067316277   -0.0400
      3 C3         -7.9410   -2.6903   58.5055 C.ar    1  ZINC001067316277    0.1800
      4 C4         -7.5178   -3.9981   58.2557 C.ar    1  ZINC001067316277   -0.2400
      5 C5         -8.4741   -4.9847   58.1173 C.ar    1  ZINC001067316277    0.1900
      6 N6         -9.7557   -4.6653   58.2247 N.ar    1  ZINC001067316277   -0.5600
      7 C7        -10.1291   -3.4162   58.4622 C.ar    1  ZINC001067316277    0.5100
      8 N8        -11.4776   -3.1235   58.5675 N.3     1  ZINC001067316277   -0.4600
      9 C9        -11.6858   -1.8404   59.2506 C.3     1  ZINC001067316277    0.0700
     10 C10       -13.1829   -1.6193   59.4783 C.3     1  ZINC001067316277   -0.1300
     11 C11       -13.9056   -1.6233   58.1284 C.3     1  ZINC001067316277    0.1600
     12 H12       -13.5384   -0.7996   57.5163 H       1  ZINC001067316277    0.0900
     13 N13       -15.3464   -1.4687   58.3440 N.am    1  ZINC001067316277   -0.7200
     14 C14       -15.9072   -0.2441   58.2972 C.2     1  ZINC001067316277    0.5900
     15 O15       -15.2166    0.7335   58.0772 O.2     1  ZINC001067316277   -0.5300
     16 C16       -17.3500   -0.0895   58.5112 C.2     1  ZINC001067316277   -0.0600
     17 C17       -18.0552    1.0950   58.4870 C.2     1  ZINC001067316277   -0.1000
     18 C18       -19.3944    0.7811   58.7382 C.2     1  ZINC001067316277   -0.2100
     19 C19       -19.4821   -0.5600   58.9079 C.2     1  ZINC001067316277    0.0300
     20 N20       -18.2476   -1.1013   58.7670 N.pl3   1  ZINC001067316277   -0.5400
     21 C21       -13.6329   -2.9511   57.4163 C.3     1  ZINC001067316277   -0.0700
     22 C22       -14.1971   -4.1032   58.2502 C.3     1  ZINC001067316277   -0.1400
     23 C23       -14.3031   -2.9401   56.0409 C.3     1  ZINC001067316277   -0.1400
     24 C24       -12.1228   -3.1336   57.2484 C.3     1  ZINC001067316277    0.0800
     25 N25        -9.2438   -2.4420   58.6067 N.ar    1  ZINC001067316277   -0.5400
     26 H26        -8.5625    0.1293   58.1987 H       1  ZINC001067316277    0.0900
     27 H27        -8.4526   -0.2187   59.9409 H       1  ZINC001067316277    0.0900
     28 H28        -7.2964    0.9024   59.1825 H       1  ZINC001067316277    0.1000
     29 H29        -6.4668   -4.2321   58.1722 H       1  ZINC001067316277    0.1500
     30 H30        -8.1806   -6.0058   57.9234 H       1  ZINC001067316277    0.1700
     31 H31       -11.1703   -1.8524   60.2109 H       1  ZINC001067316277    0.1000
     32 H32       -11.2888   -1.0329   58.6355 H       1  ZINC001067316277    0.0500
     33 H33       -13.5777   -2.4191   60.1049 H       1  ZINC001067316277    0.0800
     34 H34       -13.3381   -0.6597   59.9714 H       1  ZINC001067316277    0.0800
     35 H35       -15.8967   -2.2478   58.5205 H       1  ZINC001067316277    0.3900
     36 H36       -17.6496    2.0798   58.3079 H       1  ZINC001067316277    0.1500
     37 H37       -20.2135    1.4831   58.7885 H       1  ZINC001067316277    0.1500
     38 H38       -20.3884   -1.1087   59.1176 H       1  ZINC001067316277    0.1700
     39 H39       -18.0316   -2.0441   58.8400 H       1  ZINC001067316277    0.4100
     40 H40       -15.2721   -3.9708   58.3725 H       1  ZINC001067316277    0.0500
     41 H41       -14.0028   -5.0481   57.7428 H       1  ZINC001067316277    0.0600
     42 H42       -13.7184   -4.1114   59.2294 H       1  ZINC001067316277    0.0700
     43 H43       -13.8998   -2.1200   55.4468 H       1  ZINC001067316277    0.0600
     44 H44       -14.1087   -3.8855   55.5345 H       1  ZINC001067316277    0.0600
     45 H45       -15.3782   -2.8069   56.1616 H       1  ZINC001067316277    0.0600
     46 H46       -11.7238   -2.3200   56.6427 H       1  ZINC001067316277    0.0600
     47 H47       -11.9247   -4.0849   56.7544 H       1  ZINC001067316277    0.1000
@<TRIPOS>BOND
     1     1     2    1
     2     1    26    1
     3     1    27    1
     4     1    28    1
     5     2     3    1
     6     3    25   ar
     7     3     4   ar
     8     4     5   ar
     9     4    29    1
    10     5     6   ar
    11     5    30    1
    12     6     7   ar
    13     7     8    1
    14     7    25   ar
    15     8    24    1
    16     8     9    1
    17     9    10    1
    18     9    31    1
    19     9    32    1
    20    10    11    1
    21    10    33    1
    22    10    34    1
    23    11    12    1
    24    11    13    1
    25    11    21    1
    26    13    14   am
    27    13    35    1
    28    14    15    2
    29    14    16    1
    30    16    20    1
    31    16    17    2
    32    17    18    1
    33    17    36    1
    34    18    19    2
    35    18    37    1
    36    19    20    1
    37    19    38    1
    38    20    39    1
    39    21    22    1
    40    21    23    1
    41    21    24    1
    42    22    40    1
    43    22    41    1
    44    22    42    1
    45    23    43    1
    46    23    44    1
    47    23    45    1
    48    24    46    1
    49    24    47    1
@<TRIPOS>SUBSTRUCTURE
     1 ZINC001067316277        1 TEMP              0 ****  ****    0 ROOT


##########                                Name:    ZINC001176298561
##########                DOCK_Rotatable_Bonds:                   6
##########                         Heavy_Atoms:                  23
##########                    Molecular_Weight:             337.781
##########                DOCK_Rotatable_Bonds:                   6
##########                       Formal_Charge:          -0.0100003
##########                     HBond_Acceptors:                   7
##########                        HBond_Donors:                   2
##########                         Heavy_Atoms:                  23
##########                          Grid_Score:          -28.392361
##########                     Grid_vdw_energy:          -28.028135
##########                      Grid_es_energy:           -0.364225
##########           Internal_energy_repulsive:           12.852715

@<TRIPOS>MOLECULE
ZINC001176298561
 40 41 1 0 0
SMALL
USER_CHARGES


@<TRIPOS>ATOM
      1 C1        -16.3523   -1.6717   57.5842 C.3     1  ZINC001176298561   -0.1700
      2 C2        -15.9228   -2.1215   56.1863 C.3     1  ZINC001176298561    0.1100
      3 N3        -14.4626   -2.0654   56.0826 N.am    1  ZINC001176298561   -0.6100
      4 C4        -13.6822   -3.3048   56.0520 C.3     1  ZINC001176298561    0.0900
      5 C5        -13.6737   -3.9367   57.4454 C.3     1  ZINC001176298561   -0.1800
      6 C6        -13.8372   -0.8735   56.0152 C.2     1  ZINC001176298561    0.5600
      7 O7        -14.4846    0.1549   56.0405 O.2     1  ZINC001176298561   -0.5300
      8 C8        -12.3633   -0.8168   55.9105 C.ar    1  ZINC001176298561   -0.0600
      9 C9        -11.7566   -0.6326   54.6672 C.ar    1  ZINC001176298561   -0.1900
     10 C10       -10.3782   -0.5801   54.5718 C.ar    1  ZINC001176298561    0.1400
     11 F11        -9.7925   -0.4013   53.3676 F       1  ZINC001176298561   -0.1300
     12 C12        -9.5969   -0.7094   55.7069 C.ar    1  ZINC001176298561   -0.1800
     13 C13       -10.1934   -0.8931   56.9490 C.ar    1  ZINC001176298561    0.2400
     14 N14        -9.4009   -1.0227   58.0919 N.pl3   1  ZINC001176298561   -0.6700
     15 C15        -8.5855   -2.1492   58.2542 C.2     1  ZINC001176298561    0.0400
     16 C16        -9.1263   -3.4056   58.2211 C.2     1  ZINC001176298561   -0.0300
     17 C17        -8.2868   -4.5175   58.3859 C.2     1  ZINC001176298561   -0.1300
     18 Cl18       -8.9523   -6.1205   58.3472 Cl      1  ZINC001176298561   -0.0400
     19 C19        -6.9584   -4.3411   58.5747 C.2     1  ZINC001176298561    0.1400
     20 N20        -6.4193   -3.0920   58.6080 N.am    1  ZINC001176298561   -0.6000
     21 C21        -7.1945   -2.0024   58.4483 C.2     1  ZINC001176298561    0.5100
     22 O22        -6.6963   -0.8885   58.4802 O.2     1  ZINC001176298561   -0.5200
     23 C23       -11.5755   -0.9413   57.0546 C.ar    1  ZINC001176298561   -0.1300
     24 H24       -17.4389   -1.7135   57.6615 H       1  ZINC001176298561    0.0700
     25 H25       -15.9095   -2.3315   58.3302 H       1  ZINC001176298561    0.0600
     26 H26       -16.0149   -0.6498   57.7568 H       1  ZINC001176298561    0.0600
     27 H27       -16.2603   -3.1435   56.0138 H       1  ZINC001176298561    0.0800
     28 H28       -16.3658   -1.4617   55.4402 H       1  ZINC001176298561    0.0900
     29 H29       -14.1303   -3.9990   55.3410 H       1  ZINC001176298561    0.0900
     30 H30       -12.6594   -3.0828   55.7474 H       1  ZINC001176298561    0.0800
     31 H31       -14.6602   -3.8335   57.8972 H       1  ZINC001176298561    0.0700
     32 H32       -13.4203   -4.9937   57.3635 H       1  ZINC001176298561    0.0700
     33 H33       -12.9343   -3.4332   58.0682 H       1  ZINC001176298561    0.0600
     34 H34       -12.3637   -0.5318   53.7797 H       1  ZINC001176298561    0.1500
     35 H35        -8.5206   -0.6680   55.6273 H       1  ZINC001176298561    0.1300
     36 H36        -9.4155   -0.3323   58.7731 H       1  ZINC001176298561    0.4200
     37 H37       -10.1872   -3.5399   58.0700 H       1  ZINC001176298561    0.1500
     38 H38        -6.3186   -5.2019   58.7009 H       1  ZINC001176298561    0.1800
     39 H39        -5.4648   -2.9855   58.7447 H       1  ZINC001176298561    0.4300
     40 H40       -12.0402   -1.0839   58.0191 H       1  ZINC001176298561    0.1400
@<TRIPOS>BOND
     1     1     2    1
     2     1    24    1
     3     1    25    1
     4     1    26    1
     5     2     3    1
     6     2    27    1
     7     2    28    1
     8     3     4    1
     9     3     6   am
    10     4     5    1
    11     4    29    1
    12     4    30    1
    13     5    31    1
    14     5    32    1
    15     5    33    1
    16     6     7    2
    17     6     8    1
    18     8    23   ar
    19     8     9   ar
    20     9    10   ar
    21     9    34    1
    22    10    11    1
    23    10    12   ar
    24    12    13   ar
    25    12    35    1
    26    13    14    1
    27    13    23   ar
    28    14    15    1
    29    14    36    1
    30    15    21    1
    31    15    16    2
    32    16    17    1
    33    16    37    1
    34    17    18    1
    35    17    19    2
    36    19    20    1
    37    19    38    1
    38    20    21   am
    39    20    39    1
    40    21    22    2
    41    23    40    1
@<TRIPOS>SUBSTRUCTURE
     1 ZINC001176298561        1 TEMP              0 ****  ****    0 ROOT


##########                                Name:    ZINC001345266033
##########                DOCK_Rotatable_Bonds:                   4
##########                         Heavy_Atoms:                  29
##########                    Molecular_Weight:               389.5
##########                DOCK_Rotatable_Bonds:                   4
##########                       Formal_Charge:          -0.0100001
##########                     HBond_Acceptors:                   6
##########                        HBond_Donors:                   0
##########                         Heavy_Atoms:                  29
##########                          Grid_Score:          -28.391939
##########                     Grid_vdw_energy:          -27.575981
##########                      Grid_es_energy:           -0.815957
##########           Internal_energy_repulsive:            9.800435

@<TRIPOS>MOLECULE
ZINC001345266033
 56 61 1 0 0
SMALL
USER_CHARGES


@<TRIPOS>ATOM
      1 C1         -7.6131   -4.5424   58.4861 C.ar    1  ZINC001345266033   -0.1100
      2 C2         -8.8370   -4.6700   57.8345 C.ar    1  ZINC001345266033   -0.0900
      3 C3         -9.4784   -3.5783   57.3257 C.ar    1  ZINC001345266033   -0.1100
      4 C4         -8.8972   -2.3155   57.4621 C.ar    1  ZINC001345266033    0.0000
      5 C5         -7.6506   -2.1806   58.1257 C.ar    1  ZINC001345266033   -0.1100
      6 C6         -7.0190   -3.3253   58.6362 C.ar    1  ZINC001345266033   -0.0900
      7 C7         -7.0890   -0.8995   58.2493 C.ar    1  ZINC001345266033    0.1700
      8 N8         -7.7003    0.1536   57.7631 N.ar    1  ZINC001345266033   -0.4800
      9 C9         -8.8625    0.1021   57.1338 C.ar    1  ZINC001345266033    0.0900
     10 C10        -9.5273   -1.1022   56.9427 C.ar    1  ZINC001345266033   -0.0700
     11 C11       -10.8234   -1.1558   56.2402 C.2     1  ZINC001345266033    0.2300
     12 N12       -11.0418   -1.6429   55.0395 N.2     1  ZINC001345266033   -0.2600
     13 N13       -12.2864   -1.5290   54.7406 N.2     1  ZINC001345266033   -0.3000
     14 C14       -12.9388   -0.9627   55.7308 C.2     1  ZINC001345266033    0.3600
     15 N15       -14.2928   -0.6798   55.7656 N.3     1  ZINC001345266033   -0.4600
     16 C16       -14.5664    0.6512   55.2105 C.3     1  ZINC001345266033    0.0600
     17 C17       -16.0277    1.0293   55.4605 C.3     1  ZINC001345266033   -0.1100
     18 C18       -16.9380    0.0304   54.7360 C.3     1  ZINC001345266033   -0.0800
     19 C19       -16.5569   -1.3859   55.1802 C.3     1  ZINC001345266033   -0.1300
     20 C20       -17.3356   -1.9999   56.3425 C.3     1  ZINC001345266033   -0.1600
     21 C21       -17.5589   -2.5085   54.9165 C.3     1  ZINC001345266033   -0.1700
     22 C22       -15.0660   -1.7168   55.0661 C.3     1  ZINC001345266033    0.1100
     23 N23       -12.0339   -0.7105   56.7208 N.pl3   1  ZINC001345266033   -0.4600
     24 C24       -12.2950   -0.0877   58.0210 C.3     1  ZINC001345266033    0.1000
     25 C25       -12.0527   -1.1096   59.1336 C.3     1  ZINC001345266033   -0.1400
     26 H26       -10.9848   -1.2851   59.2634 H       1  ZINC001345266033    0.1000
     27 C27       -12.7855   -2.4367   58.8194 C.3     1  ZINC001345266033   -0.1500
     28 C28       -13.3367   -2.8405   60.2107 C.3     1  ZINC001345266033    0.0500
     29 O29       -13.7102   -1.5785   60.8042 O.3     1  ZINC001345266033   -0.3700
     30 C30       -12.6847   -0.6291   60.4543 C.3     1  ZINC001345266033    0.0300
     31 H31        -7.1286   -5.4222   58.8832 H       1  ZINC001345266033    0.1300
     32 H32        -9.2851   -5.6472   57.7299 H       1  ZINC001345266033    0.1300
     33 H33       -10.4270   -3.6897   56.8217 H       1  ZINC001345266033    0.1600
     34 H34        -6.0698   -3.2420   59.1446 H       1  ZINC001345266033    0.1400
     35 H35        -6.1406   -0.7800   58.7520 H       1  ZINC001345266033    0.1700
     36 H36        -9.3036    1.0149   56.7614 H       1  ZINC001345266033    0.1700
     37 H37       -13.9161    1.3836   55.6887 H       1  ZINC001345266033    0.0700
     38 H38       -14.3730    0.6430   54.1378 H       1  ZINC001345266033    0.0500
     39 H39       -16.2336    0.9998   56.5304 H       1  ZINC001345266033    0.0800
     40 H40       -16.2142    2.0336   55.0805 H       1  ZINC001345266033    0.0800
     41 H41       -17.9781    0.2280   54.9952 H       1  ZINC001345266033    0.0700
     42 H42       -16.8016    0.1253   53.6588 H       1  ZINC001345266033    0.0700
     43 H43       -16.7893   -2.6476   57.0282 H       1  ZINC001345266033    0.0900
     44 H44       -18.1262   -1.3989   56.7921 H       1  ZINC001345266033    0.0900
     45 H45       -18.4961   -2.2421   54.4279 H       1  ZINC001345266033    0.1000
     46 H46       -17.1593   -3.4907   54.6640 H       1  ZINC001345266033    0.1000
     47 H47       -14.7769   -1.7413   54.0155 H       1  ZINC001345266033    0.0600
     48 H48       -14.8716   -2.6873   55.5228 H       1  ZINC001345266033    0.0800
     49 H49       -11.6270    0.7628   58.1572 H       1  ZINC001345266033    0.1100
     50 H50       -13.3296    0.2529   58.0595 H       1  ZINC001345266033    0.1100
     51 H51       -13.5980   -2.2741   58.1113 H       1  ZINC001345266033    0.0800
     52 H52       -12.0887   -3.1865   58.4445 H       1  ZINC001345266033    0.0900
     53 H53       -14.2073   -3.4878   60.1054 H       1  ZINC001345266033    0.1000
     54 H54       -12.5631   -3.3292   60.8029 H       1  ZINC001345266033    0.0600
     55 H55       -11.9291   -0.5938   61.2390 H       1  ZINC001345266033    0.0600
     56 H56       -13.1253    0.3583   60.3165 H       1  ZINC001345266033    0.0900
@<TRIPOS>BOND
     1     1     6   ar
     2     1     2   ar
     3     1    31    1
     4     2     3   ar
     5     2    32    1
     6     3     4   ar
     7     3    33    1
     8     4    10   ar
     9     4     5   ar
    10     5     6   ar
    11     5     7   ar
    12     6    34    1
    13     7     8   ar
    14     7    35    1
    15     8     9   ar
    16     9    10   ar
    17     9    36    1
    18    10    11    1
    19    11    23    1
    20    11    12    2
    21    12    13    1
    22    13    14    2
    23    14    15    1
    24    14    23    1
    25    15    22    1
    26    15    16    1
    27    16    17    1
    28    16    37    1
    29    16    38    1
    30    17    18    1
    31    17    39    1
    32    17    40    1
    33    18    19    1
    34    18    41    1
    35    18    42    1
    36    19    21    1
    37    19    20    1
    38    19    22    1
    39    20    21    1
    40    20    43    1
    41    20    44    1
    42    21    45    1
    43    21    46    1
    44    22    47    1
    45    22    48    1
    46    23    24    1
    47    24    25    1
    48    24    49    1
    49    24    50    1
    50    25    26    1
    51    25    30    1
    52    25    27    1
    53    27    28    1
    54    27    51    1
    55    27    52    1
    56    28    29    1
    57    28    53    1
    58    28    54    1
    59    29    30    1
    60    30    55    1
    61    30    56    1
@<TRIPOS>SUBSTRUCTURE
     1 ZINC001345266033        1 TEMP              0 ****  ****    0 ROOT


##########                                Name:    ZINC000587344575
##########                DOCK_Rotatable_Bonds:                   7
##########                         Heavy_Atoms:                  30
##########                    Molecular_Weight:             408.475
##########                DOCK_Rotatable_Bonds:                   7
##########                       Formal_Charge:          -0.0100002
##########                     HBond_Acceptors:                   7
##########                        HBond_Donors:                   2
##########                         Heavy_Atoms:                  30
##########                          Grid_Score:          -28.387405
##########                     Grid_vdw_energy:          -26.084669
##########                      Grid_es_energy:           -2.302737
##########           Internal_energy_repulsive:           16.163818

@<TRIPOS>MOLECULE
ZINC000587344575
 55 57 1 0 0
SMALL
USER_CHARGES


@<TRIPOS>ATOM
      1 C1         -8.1375   -0.7421   59.6862 C.3     1  ZINC000587344575   -0.1200
      2 C2         -7.7208    0.6929   59.4910 C.ar    1  ZINC000587344575    0.0000
      3 C3         -6.7970    1.0167   58.5234 C.ar    1  ZINC000587344575   -0.1600
      4 C4         -6.4121    2.3416   58.3423 C.ar    1  ZINC000587344575    0.1800
      5 N5         -5.4762    2.6662   57.3608 N.am    1  ZINC000587344575   -0.6700
      6 C6         -5.8128    3.5025   56.3590 C.2     1  ZINC000587344575    0.5200
      7 O7         -6.9297    3.9727   56.3111 O.2     1  ZINC000587344575   -0.5000
      8 C8         -4.8014    3.8533   55.2983 C.3     1  ZINC000587344575   -0.1200
      9 H9         -3.7910    3.6771   55.6669 H       1  ZINC000587344575    0.1100
     10 C10        -4.9656    5.3290   54.8676 C.3     1  ZINC000587344575   -0.1200
     11 C11        -4.7349    5.2708   53.3366 C.3     1  ZINC000587344575    0.0400
     12 N12        -5.3793    3.9914   52.9441 N.3     1  ZINC000587344575   -0.4800
     13 C13        -4.8952    3.5445   51.7164 C.ar    1  ZINC000587344575    0.0700
     14 C14        -3.5505    3.2182   51.5781 C.ar    1  ZINC000587344575   -0.1200
     15 C15        -3.0681    2.7764   50.3659 C.ar    1  ZINC000587344575   -0.0700
     16 C16        -3.9312    2.6554   49.2734 C.ar    1  ZINC000587344575    0.0000
     17 C17        -3.4321    2.1958   48.0123 C.1     1  ZINC000587344575    0.2500
     18 N18        -3.0362    1.8314   47.0119 N.1     1  ZINC000587344575   -0.4000
     19 C19        -5.2833    2.9836   49.4145 C.ar    1  ZINC000587344575   -0.1000
     20 C20        -5.7609    3.4200   50.6312 C.ar    1  ZINC000587344575    0.1300
     21 F21        -7.0668    3.7369   50.7695 F       1  ZINC000587344575   -0.1200
     22 C22        -5.0566    3.0291   54.0229 C.3     1  ZINC000587344575    0.0500
     23 C23        -6.9593    3.3431   59.1377 C.ar    1  ZINC000587344575   -0.1400
     24 C24        -7.8840    3.0262   60.1074 C.ar    1  ZINC000587344575   -0.0600
     25 C25        -8.2766    1.6973   60.2884 C.ar    1  ZINC000587344575   -0.1600
     26 C26        -9.2680    1.3539   61.3266 C.2     1  ZINC000587344575    0.5600
     27 O27       -10.2319    0.6690   61.0438 O.2     1  ZINC000587344575   -0.5300
     28 N28        -9.1046    1.7996   62.5880 N.am    1  ZINC000587344575   -0.7200
     29 C29       -10.0877    1.4572   63.6188 C.3     1  ZINC000587344575    0.1400
     30 C30        -9.6869    0.1415   64.2890 C.3     1  ZINC000587344575   -0.1600
     31 C31       -10.1353    2.5701   64.6678 C.3     1  ZINC000587344575   -0.1600
     32 H32        -9.0636   -0.9287   59.1428 H       1  ZINC000587344575    0.0800
     33 H33        -7.3558   -1.4018   59.3093 H       1  ZINC000587344575    0.0600
     34 H34        -8.2940   -0.9339   60.7477 H       1  ZINC000587344575    0.1000
     35 H35        -6.3699    0.2415   57.9044 H       1  ZINC000587344575    0.1300
     36 H36        -4.5830    2.2901   57.3992 H       1  ZINC000587344575    0.4100
     37 H37        -5.9702    5.6872   55.0929 H       1  ZINC000587344575    0.0900
     38 H38        -4.2147    5.9567   55.3473 H       1  ZINC000587344575    0.0900
     39 H39        -5.2190    6.1130   52.8422 H       1  ZINC000587344575    0.0900
     40 H40        -3.6691    5.2505   53.1088 H       1  ZINC000587344575    0.0600
     41 H41        -2.8833    3.3117   52.4222 H       1  ZINC000587344575    0.1400
     42 H42        -2.0234    2.5241   50.2598 H       1  ZINC000587344575    0.1400
     43 H43        -5.9530    2.8910   48.5723 H       1  ZINC000587344575    0.1500
     44 H44        -4.1636    2.4620   53.7598 H       1  ZINC000587344575    0.0600
     45 H45        -5.8965    2.3523   54.1802 H       1  ZINC000587344575    0.1100
     46 H46        -6.6582    4.3704   58.9948 H       1  ZINC000587344575    0.1400
     47 H47        -8.3084    3.8042   60.7247 H       1  ZINC000587344575    0.1300
     48 H48        -8.3363    2.3470   62.8133 H       1  ZINC000587344575    0.4000
     49 H49       -11.0708    1.3471   63.1612 H       1  ZINC000587344575    0.0900
     50 H50        -8.7037    0.2517   64.7467 H       1  ZINC000587344575    0.0600
     51 H51       -10.4182   -0.1132   65.0559 H       1  ZINC000587344575    0.0700
     52 H52        -9.6529   -0.6513   63.5417 H       1  ZINC000587344575    0.0600
     53 H53        -9.1522    2.6802   65.1256 H       1  ZINC000587344575    0.0600
     54 H54       -10.4208    3.5073   64.1904 H       1  ZINC000587344575    0.0600
     55 H55       -10.8667    2.3154   65.4348 H       1  ZINC000587344575    0.0700
@<TRIPOS>BOND
     1     1     2    1
     2     1    32    1
     3     1    33    1
     4     1    34    1
     5     2    25   ar
     6     2     3   ar
     7     3     4   ar
     8     3    35    1
     9     4     5    1
    10     4    23   ar
    11     5     6   am
    12     5    36    1
    13     6     7    2
    14     6     8    1
    15     8     9    1
    16     8    22    1
    17     8    10    1
    18    10    11    1
    19    10    37    1
    20    10    38    1
    21    11    12    1
    22    11    39    1
    23    11    40    1
    24    12    13    1
    25    12    22    1
    26    13    20   ar
    27    13    14   ar
    28    14    15   ar
    29    14    41    1
    30    15    16   ar
    31    15    42    1
    32    16    17    1
    33    16    19   ar
    34    17    18    3
    35    19    20   ar
    36    19    43    1
    37    20    21    1
    38    22    44    1
    39    22    45    1
    40    23    24   ar
    41    23    46    1
    42    24    25   ar
    43    24    47    1
    44    25    26    1
    45    26    27    2
    46    26    28   am
    47    28    29    1
    48    28    48    1
    49    29    30    1
    50    29    31    1
    51    29    49    1
    52    30    50    1
    53    30    51    1
    54    30    52    1
    55    31    53    1
    56    31    54    1
    57    31    55    1
@<TRIPOS>SUBSTRUCTURE
     1 ZINC000587344575        1 TEMP              0 ****  ****    0 ROOT


##########                                Name:    ZINC001162683355
##########                DOCK_Rotatable_Bonds:                   5
##########                         Heavy_Atoms:                  25
##########                    Molecular_Weight:             336.437
##########                DOCK_Rotatable_Bonds:                   5
##########                       Formal_Charge:          -0.0100002
##########                     HBond_Acceptors:                   5
##########                        HBond_Donors:                   1
##########                         Heavy_Atoms:                  25
##########                          Grid_Score:          -28.365992
##########                     Grid_vdw_energy:          -27.452724
##########                      Grid_es_energy:           -0.913268
##########           Internal_energy_repulsive:            8.195678

@<TRIPOS>MOLECULE
ZINC001162683355
 49 52 1 0 0
SMALL
USER_CHARGES


@<TRIPOS>ATOM
      1 C1        -16.8583   -2.0849   57.6366 C.3     1  ZINC001162683355    0.0200
      2 N2        -15.5404   -1.7016   57.1131 N.3     1  ZINC001162683355   -0.5400
      3 C3        -15.5865   -1.5141   55.6557 C.3     1  ZINC001162683355    0.0100
      4 C4        -14.2109   -1.0586   55.1614 C.3     1  ZINC001162683355    0.0600
      5 O5        -13.2269   -2.0198   55.5529 O.3     1  ZINC001162683355   -0.3800
      6 C6        -13.1545   -2.2268   56.9662 C.3     1  ZINC001162683355    0.0800
      7 H7        -12.8809   -1.2928   57.4572 H       1  ZINC001162683355    0.0700
      8 C8        -12.1010   -3.2929   57.2731 C.3     1  ZINC001162683355    0.1500
      9 N9        -10.8073   -2.8720   56.7296 N.pl3   1  ZINC001162683355   -0.7300
     10 C10        -9.6306   -3.2344   57.3757 C.ar    1  ZINC001162683355    0.4300
     11 C11        -8.6942   -2.2564   57.7192 C.ar    1  ZINC001162683355   -0.0100
     12 C12        -7.5145   -2.6578   58.3724 C.ar    1  ZINC001162683355   -0.0400
     13 C13        -7.3289   -4.0186   58.6506 C.ar    1  ZINC001162683355   -0.1800
     14 C14        -8.2973   -4.9050   58.2785 C.ar    1  ZINC001162683355    0.1000
     15 N15        -9.4001   -4.5046   57.6643 N.ar    1  ZINC001162683355   -0.5400
     16 C16        -6.7425   -1.4400   58.6004 C.2     1  ZINC001162683355   -0.2200
     17 C17        -7.4585   -0.4206   58.0932 C.2     1  ZINC001162683355    0.0800
     18 N18        -8.6287   -0.8900   57.5682 N.pl3   1  ZINC001162683355   -0.4600
     19 C19        -9.6580   -0.0631   56.9334 C.3     1  ZINC001162683355    0.1500
     20 C20        -9.1900    0.3582   55.5642 C.ar    1  ZINC001162683355   -0.1100
     21 C21        -8.7159    1.6405   55.3602 C.ar    1  ZINC001162683355   -0.1000
     22 C22        -8.2825    2.0256   54.1052 C.ar    1  ZINC001162683355   -0.1200
     23 C23        -8.3320    1.1313   53.0524 C.ar    1  ZINC001162683355   -0.1100
     24 C24        -8.8111   -0.1495   53.2553 C.ar    1  ZINC001162683355   -0.1200
     25 C25        -9.2403   -0.5359   54.5112 C.ar    1  ZINC001162683355   -0.1000
     26 C26       -14.5193   -2.6941   57.4787 C.3     1  ZINC001162683355    0.0300
     27 H27       -17.1439   -3.0540   57.2274 H       1  ZINC001162683355    0.0300
     28 H28       -16.8131   -2.1487   58.7237 H       1  ZINC001162683355    0.0700
     29 H29       -17.5961   -1.3365   57.3469 H       1  ZINC001162683355    0.0700
     30 H30       -16.3308   -0.7570   55.4095 H       1  ZINC001162683355    0.0900
     31 H31       -15.8520   -2.4562   55.1759 H       1  ZINC001162683355    0.0500
     32 H32       -13.9689   -0.0905   55.6001 H       1  ZINC001162683355    0.0600
     33 H33       -14.2240   -0.9729   54.0749 H       1  ZINC001162683355    0.1000
     34 H34       -12.3966   -4.2377   56.8168 H       1  ZINC001162683355    0.0700
     35 H35       -12.0174   -3.4211   58.3523 H       1  ZINC001162683355    0.0800
     36 H36       -10.7717   -2.3403   55.9191 H       1  ZINC001162683355    0.4000
     37 H37        -6.4349   -4.3600   59.1512 H       1  ZINC001162683355    0.1300
     38 H38        -8.1617   -5.9554   58.4898 H       1  ZINC001162683355    0.1500
     39 H39        -5.7777   -1.3712   59.0809 H       1  ZINC001162683355    0.1500
     40 H40        -7.1543    0.6156   58.1019 H       1  ZINC001162683355    0.1700
     41 H41        -9.8404    0.8217   57.5433 H       1  ZINC001162683355    0.0900
     42 H42       -10.5798   -0.6375   56.8416 H       1  ZINC001162683355    0.0900
     43 H43        -8.6807    2.3405   56.1819 H       1  ZINC001162683355    0.1200
     44 H44        -7.9079    3.0261   53.9468 H       1  ZINC001162683355    0.1300
     45 H45        -7.9959    1.4330   52.0714 H       1  ZINC001162683355    0.1300
     46 H46        -8.8497   -0.8482   52.4327 H       1  ZINC001162683355    0.1300
     47 H47        -9.6147   -1.5365   54.6698 H       1  ZINC001162683355    0.1200
     48 H48       -14.7678   -3.6549   57.0280 H       1  ZINC001162683355    0.0500
     49 H49       -14.4847   -2.7982   58.5632 H       1  ZINC001162683355    0.0900
@<TRIPOS>BOND
     1     1     2    1
     2     1    27    1
     3     1    28    1
     4     1    29    1
     5     2    26    1
     6     2     3    1
     7     3     4    1
     8     3    30    1
     9     3    31    1
    10     4     5    1
    11     4    32    1
    12     4    33    1
    13     5     6    1
    14     6     7    1
    15     6     8    1
    16     6    26    1
    17     8     9    1
    18     8    34    1
    19     8    35    1
    20     9    10    1
    21     9    36    1
    22    10    15   ar
    23    10    11   ar
    24    11    18    1
    25    11    12   ar
    26    12    13   ar
    27    12    16    1
    28    13    14   ar
    29    13    37    1
    30    14    15   ar
    31    14    38    1
    32    16    17    2
    33    16    39    1
    34    17    18    1
    35    17    40    1
    36    18    19    1
    37    19    20    1
    38    19    41    1
    39    19    42    1
    40    20    25   ar
    41    20    21   ar
    42    21    22   ar
    43    21    43    1
    44    22    23   ar
    45    22    44    1
    46    23    24   ar
    47    23    45    1
    48    24    25   ar
    49    24    46    1
    50    25    47    1
    51    26    48    1
    52    26    49    1
@<TRIPOS>SUBSTRUCTURE
     1 ZINC001162683355        1 TEMP              0 ****  ****    0 ROOT


##########                                Name:    ZINC001173835973
##########                DOCK_Rotatable_Bonds:                   4
##########                         Heavy_Atoms:                  26
##########                    Molecular_Weight:             343.388
##########                DOCK_Rotatable_Bonds:                   4
##########                       Formal_Charge:           -0.010001
##########                     HBond_Acceptors:                   6
##########                        HBond_Donors:                   4
##########                         Heavy_Atoms:                  26
##########                          Grid_Score:          -28.360580
##########                     Grid_vdw_energy:          -24.809122
##########                      Grid_es_energy:           -3.551459
##########           Internal_energy_repulsive:            7.261059

@<TRIPOS>MOLECULE
ZINC001173835973
 43 46 1 0 0
SMALL
USER_CHARGES


@<TRIPOS>ATOM
      1 C1         -3.8270    4.3502   57.1709 C.3     1  ZINC001173835973   -0.1700
      2 C2         -5.1754    3.6775   57.1498 C.2     1  ZINC001173835973    0.5100
      3 O3         -5.8725    3.7471   56.1597 O.2     1  ZINC001173835973   -0.5200
      4 N4         -5.6067    2.9984   58.2311 N.am    1  ZINC001173835973   -0.6800
      5 C5         -6.8586    2.3737   58.2116 C.ar    1  ZINC001173835973    0.1800
      6 C6         -7.8180    2.7096   59.1583 C.ar    1  ZINC001173835973   -0.1900
      7 C7         -9.0549    2.0933   59.1400 C.ar    1  ZINC001173835973   -0.0600
      8 C8         -9.3419    1.1421   58.1806 C.ar    1  ZINC001173835973   -0.1900
      9 C9         -8.3862    0.8014   57.2302 C.ar    1  ZINC001173835973    0.2200
     10 N10        -8.6767   -0.1604   56.2605 N.pl3   1  ZINC001173835973   -0.6900
     11 C11        -9.5606   -1.2054   56.5540 C.ar    1  ZINC001173835973    0.0400
     12 C12       -10.8679   -1.1119   56.1771 C.ar    1  ZINC001173835973    0.2400
     13 N13       -11.3155    0.0282   55.4999 N.pl3   1  ZINC001173835973   -0.8600
     14 C14       -11.8033   -2.1913   56.4740 C.ar    1  ZINC001173835973   -0.1100
     15 C15       -13.1505   -2.1010   56.0880 C.ar    1  ZINC001173835973   -0.0600
     16 C16       -13.9832   -3.1437   56.3924 C.ar    1  ZINC001173835973   -0.1700
     17 C17       -13.4846   -4.2520   57.0667 C.ar    1  ZINC001173835973    0.1200
     18 N18       -12.2229   -4.3288   57.4242 N.ar    1  ZINC001173835973   -0.4400
     19 C19       -11.3645   -3.3473   57.1566 C.ar    1  ZINC001173835973    0.1900
     20 C20        -9.9576   -3.4480   57.5622 C.ar    1  ZINC001173835973    0.1300
     21 N21        -9.5094   -4.5229   58.2069 N.ar    1  ZINC001173835973   -0.4400
     22 C22        -8.2528   -4.6262   58.5757 C.ar    1  ZINC001173835973    0.1000
     23 C23        -7.3322   -3.6195   58.3110 C.ar    1  ZINC001173835973   -0.1500
     24 C24        -7.7313   -2.4886   57.6511 C.ar    1  ZINC001173835973   -0.0700
     25 C25        -9.0750   -2.3889   57.2555 C.ar    1  ZINC001173835973   -0.0400
     26 C26        -7.1449    1.4224   57.2429 C.ar    1  ZINC001173835973   -0.1900
     27 H27        -3.6532    4.8455   56.2156 H       1  ZINC001173835973    0.1000
     28 H28        -3.8017    5.0882   57.9726 H       1  ZINC001173835973    0.0900
     29 H29        -3.0511    3.6036   57.3396 H       1  ZINC001173835973    0.0900
     30 H30        -5.0492    2.9425   59.0229 H       1  ZINC001173835973    0.4100
     31 H31        -7.5970    3.4530   59.9099 H       1  ZINC001173835973    0.1200
     32 H32        -9.7987    2.3560   59.8778 H       1  ZINC001173835973    0.1200
     33 H33       -10.3093    0.6624   58.1690 H       1  ZINC001173835973    0.1200
     34 H34        -8.2661   -0.1044   55.3835 H       1  ZINC001173835973    0.4000
     35 H35       -10.6823    0.7111   55.2288 H       1  ZINC001173835973    0.4100
     36 H36       -12.2589    0.1352   55.3016 H       1  ZINC001173835973    0.4000
     37 H37       -13.5199   -1.2313   55.5648 H       1  ZINC001173835973    0.1400
     38 H38       -15.0249   -3.1052   56.1098 H       1  ZINC001173835973    0.1400
     39 H39       -14.1501   -5.0693   57.3023 H       1  ZINC001173835973    0.1700
     40 H40        -7.9277   -5.5143   59.0973 H       1  ZINC001173835973    0.1600
     41 H41        -6.3048   -3.7288   58.6253 H       1  ZINC001173835973    0.1400
     42 H42        -7.0302   -1.6955   57.4369 H       1  ZINC001173835973    0.1400
     43 H43        -6.4008    1.1599   56.5056 H       1  ZINC001173835973    0.1400
@<TRIPOS>BOND
     1     1     2    1
     2     1    27    1
     3     1    28    1
     4     1    29    1
     5     2     3    2
     6     2     4   am
     7     4     5    1
     8     4    30    1
     9     5    26   ar
    10     5     6   ar
    11     6     7   ar
    12     6    31    1
    13     7     8   ar
    14     7    32    1
    15     8     9   ar
    16     8    33    1
    17     9    10    1
    18     9    26   ar
    19    10    11    1
    20    10    34    1
    21    11    25   ar
    22    11    12   ar
    23    12    13    1
    24    12    14   ar
    25    13    35    1
    26    13    36    1
    27    14    19   ar
    28    14    15   ar
    29    15    16   ar
    30    15    37    1
    31    16    17   ar
    32    16    38    1
    33    17    18   ar
    34    17    39    1
    35    18    19   ar
    36    19    20   ar
    37    20    25   ar
    38    20    21   ar
    39    21    22   ar
    40    22    23   ar
    41    22    40    1
    42    23    24   ar
    43    23    41    1
    44    24    25   ar
    45    24    42    1
    46    26    43    1
@<TRIPOS>SUBSTRUCTURE
     1 ZINC001173835973        1 TEMP              0 ****  ****    0 ROOT


##########                                Name:    ZINC000417533280
##########                DOCK_Rotatable_Bonds:                   9
##########                         Heavy_Atoms:                  26
##########                    Molecular_Weight:             367.439
##########                DOCK_Rotatable_Bonds:                   9
##########                       Formal_Charge:         -0.00999999
##########                     HBond_Acceptors:                   7
##########                        HBond_Donors:                   2
##########                         Heavy_Atoms:                  26
##########                          Grid_Score:          -28.354963
##########                     Grid_vdw_energy:          -27.979601
##########                      Grid_es_energy:           -0.375362
##########           Internal_energy_repulsive:           16.374275

@<TRIPOS>MOLECULE
ZINC000417533280
 53 54 1 0 0
SMALL
USER_CHARGES


@<TRIPOS>ATOM
      1 C1         -4.2476    4.1286   57.1589 C.3     1  ZINC000417533280   -0.1600
      2 C2         -5.7538    4.2580   56.9231 C.3     1  ZINC000417533280   -0.1200
      3 C3         -6.4717    3.0558   57.5398 C.3     1  ZINC000417533280   -0.1200
      4 C4         -6.3589    1.8559   56.5972 C.3     1  ZINC000417533280   -0.1300
      5 C5         -7.5410    1.8575   55.6259 C.3     1  ZINC000417533280    0.1200
      6 N6         -7.0953    2.3357   54.3149 N.am    1  ZINC000417533280   -0.7300
      7 C7         -7.9168    2.2472   53.2503 C.2     1  ZINC000417533280    0.5200
      8 O8         -9.0258    1.7730   53.3778 O.2     1  ZINC000417533280   -0.5400
      9 C9         -7.4576    2.7375   51.9012 C.3     1  ZINC000417533280   -0.1100
     10 C10        -6.3678    3.7958   52.0873 C.3     1  ZINC000417533280   -0.1300
     11 C11        -5.9280    4.3168   50.7155 C.3     1  ZINC000417533280    0.1300
     12 N12        -5.5245    3.1751   49.8833 N.am    1  ZINC000417533280   -0.6200
     13 C13        -4.3153    3.1523   49.2884 C.2     1  ZINC000417533280    0.7100
     14 O14        -3.5466    4.0824   49.4381 O.2     1  ZINC000417533280   -0.5600
     15 N15        -3.9583    2.0986   48.5277 N.am    1  ZINC000417533280   -0.6800
     16 C16        -2.7018    2.0749   47.9095 C.ar    1  ZINC000417533280    0.1900
     17 C17        -2.5841    2.3891   46.5625 C.ar    1  ZINC000417533280   -0.1100
     18 C18        -1.3440    2.3661   45.9535 C.ar    1  ZINC000417533280   -0.1100
     19 C19        -0.2185    2.0297   46.6850 C.ar    1  ZINC000417533280    0.0500
     20 F20         0.9930    2.0081   46.0875 F       1  ZINC000417533280   -0.1300
     21 C21        -0.3329    1.7152   48.0311 C.ar    1  ZINC000417533280    0.0900
     22 F22         0.7669    1.3871   48.7438 F       1  ZINC000417533280   -0.1200
     23 C23        -1.5718    1.7426   48.6447 C.ar    1  ZINC000417533280   -0.1300
     24 C24        -1.6968    1.4016   50.1073 C.3     1  ZINC000417533280   -0.1200
     25 C25        -6.4641    2.0586   49.7122 C.3     1  ZINC000417533280    0.1100
     26 C26        -6.8980    1.5630   51.0954 C.3     1  ZINC000417533280   -0.1200
     27 H27        -4.0489    4.0971   58.2302 H       1  ZINC000417533280    0.0500
     28 H28        -3.8847    3.2114   56.6949 H       1  ZINC000417533280    0.0500
     29 H29        -3.7362    4.9850   56.7195 H       1  ZINC000417533280    0.0500
     30 H30        -6.1167    5.1751   57.3871 H       1  ZINC000417533280    0.0600
     31 H31        -5.9525    4.2895   55.8518 H       1  ZINC000417533280    0.0600
     32 H32        -6.0122    2.8102   58.4972 H       1  ZINC000417533280    0.0700
     33 H33        -7.5229    3.2998   57.6931 H       1  ZINC000417533280    0.0700
     34 H34        -5.4270    1.9214   56.0356 H       1  ZINC000417533280    0.0700
     35 H35        -6.3682    0.9345   57.1794 H       1  ZINC000417533280    0.0700
     36 H36        -7.9333    0.8451   55.5293 H       1  ZINC000417533280    0.0700
     37 H37        -8.3227    2.5153   56.0061 H       1  ZINC000417533280    0.0700
     38 H38        -6.2087    2.7161   54.2131 H       1  ZINC000417533280    0.4000
     39 H39        -8.3011    3.1751   51.3674 H       1  ZINC000417533280    0.1000
     40 H40        -6.7601    4.6213   52.6813 H       1  ZINC000417533280    0.0800
     41 H41        -5.5137    3.3525   52.5992 H       1  ZINC000417533280    0.0800
     42 H42        -6.7575    4.8404   50.2403 H       1  ZINC000417533280    0.0700
     43 H43        -5.0849    4.9971   50.8361 H       1  ZINC000417533280    0.1000
     44 H44        -4.5716    1.3567   48.4084 H       1  ZINC000417533280    0.4100
     45 H45        -3.4619    2.6514   45.9905 H       1  ZINC000417533280    0.1700
     46 H46        -1.2532    2.6103   44.9054 H       1  ZINC000417533280    0.1500
     47 H47        -1.5849    2.3078   50.7025 H       1  ZINC000417533280    0.0800
     48 H48        -2.6764    0.9620   50.2954 H       1  ZINC000417533280    0.0700
     49 H49        -0.9197    0.6883   50.3817 H       1  ZINC000417533280    0.0800
     50 H50        -7.3374    2.3980   49.1551 H       1  ZINC000417533280    0.0800
     51 H51        -5.9748    1.2489   49.1708 H       1  ZINC000417533280    0.0800
     52 H52        -6.0388    1.1406   51.6165 H       1  ZINC000417533280    0.0800
     53 H53        -7.6676    0.7993   50.9831 H       1  ZINC000417533280    0.0900
@<TRIPOS>BOND
     1     1     2    1
     2     1    27    1
     3     1    28    1
     4     1    29    1
     5     2     3    1
     6     2    30    1
     7     2    31    1
     8     3     4    1
     9     3    32    1
    10     3    33    1
    11     4     5    1
    12     4    34    1
    13     4    35    1
    14     5     6    1
    15     5    36    1
    16     5    37    1
    17     6     7   am
    18     6    38    1
    19     7     8    2
    20     7     9    1
    21     9    26    1
    22     9    10    1
    23     9    39    1
    24    10    11    1
    25    10    40    1
    26    10    41    1
    27    11    12    1
    28    11    42    1
    29    11    43    1
    30    12    13   am
    31    12    25    1
    32    13    14    2
    33    13    15   am
    34    15    16    1
    35    15    44    1
    36    16    23   ar
    37    16    17   ar
    38    17    18   ar
    39    17    45    1
    40    18    19   ar
    41    18    46    1
    42    19    20    1
    43    19    21   ar
    44    21    22    1
    45    21    23   ar
    46    23    24    1
    47    24    47    1
    48    24    48    1
    49    24    49    1
    50    25    26    1
    51    25    50    1
    52    25    51    1
    53    26    52    1
    54    26    53    1
@<TRIPOS>SUBSTRUCTURE
     1 ZINC000417533280        1 TEMP              0 ****  ****    0 ROOT


##########                                Name:    ZINC000269287897
##########                DOCK_Rotatable_Bonds:                   8
##########                         Heavy_Atoms:                  23
##########                    Molecular_Weight:             385.301
##########                DOCK_Rotatable_Bonds:                   8
##########                       Formal_Charge:           0.0300002
##########                     HBond_Acceptors:                   5
##########                        HBond_Donors:                   1
##########                         Heavy_Atoms:                  23
##########                          Grid_Score:          -28.316916
##########                     Grid_vdw_energy:          -27.003275
##########                      Grid_es_energy:           -1.313640
##########           Internal_energy_repulsive:           12.109080

@<TRIPOS>MOLECULE
ZINC000269287897
 48 49 1 0 0
SMALL
USER_CHARGES


@<TRIPOS>ATOM
      1 C1         -5.1306    3.4862   57.1511 C.3     1  ZINC000269287897    0.0300
      2 O2         -6.5477    3.6363   57.2580 O.3     1  ZINC000269287897   -0.3800
      3 C3         -7.1360    2.8674   58.3090 C.3     1  ZINC000269287897    0.0600
      4 C4         -6.8558    1.3819   58.0724 C.3     1  ZINC000269287897    0.0600
      5 O5         -7.4565    0.6118   59.1155 O.3     1  ZINC000269287897   -0.3800
      6 C6         -7.0316   -0.7521   59.1495 C.3     1  ZINC000269287897    0.0700
      7 C7         -7.8393   -1.5634   58.1346 C.3     1  ZINC000269287897   -0.1000
      8 H8         -7.6448   -1.2191   57.1188 H       1  ZINC000269287897    0.1000
      9 C9         -7.5440   -3.0803   58.2738 C.3     1  ZINC000269287897   -0.1200
     10 C10        -8.8374   -3.7343   57.7436 C.3     1  ZINC000269287897    0.1000
     11 N11        -9.9108   -2.7366   57.8612 N.am    1  ZINC000269287897   -0.6300
     12 C12       -11.1929   -2.9142   57.4851 C.2     1  ZINC000269287897    0.7300
     13 O13       -11.5436   -3.9735   57.0022 O.2     1  ZINC000269287897   -0.5600
     14 N14       -12.0860   -1.9176   57.6444 N.am    1  ZINC000269287897   -0.6900
     15 C15       -13.4176   -2.1020   57.2538 C.ar    1  ZINC000269287897    0.1800
     16 C16       -14.3211   -2.6984   58.1226 C.ar    1  ZINC000269287897   -0.0600
     17 C17       -13.8697   -3.1484   59.4882 C.3     1  ZINC000269287897   -0.1000
     18 C18       -15.6348   -2.8786   57.7345 C.ar    1  ZINC000269287897   -0.0900
     19 C19       -16.0503   -2.4657   56.4822 C.ar    1  ZINC000269287897   -0.0800
     20 C20       -17.4840   -2.6641   56.0625 C.3     1  ZINC000269287897   -0.1100
     21 C21       -15.1532   -1.8707   55.6138 C.ar    1  ZINC000269287897   -0.0900
     22 C22       -13.8392   -1.6831   55.9975 C.ar    1  ZINC000269287897   -0.1000
     23 Br23      -12.6131   -0.8690   54.8102 Br      1  ZINC000269287897   -0.0500
     24 C24        -9.3531   -1.5093   58.4590 C.3     1  ZINC000269287897    0.1400
     25 H25        -4.6605    3.8019   58.0825 H       1  ZINC000269287897    0.0400
     26 H26        -4.8895    2.4408   56.9586 H       1  ZINC000269287897    0.0400
     27 H27        -4.7610    4.1014   56.3308 H       1  ZINC000269287897    0.0900
     28 H28        -6.7075    3.1702   59.2644 H       1  ZINC000269287897    0.0600
     29 H29        -8.2127    3.0362   58.3238 H       1  ZINC000269287897    0.0600
     30 H30        -7.2745    1.0817   57.1118 H       1  ZINC000269287897    0.0700
     31 H31        -5.7793    1.2113   58.0686 H       1  ZINC000269287897    0.0600
     32 H32        -5.9721   -0.8089   58.8995 H       1  ZINC000269287897    0.0600
     33 H33        -7.1915   -1.1576   60.1486 H       1  ZINC000269287897    0.0500
     34 H34        -6.6888   -3.3645   57.6606 H       1  ZINC000269287897    0.0900
     35 H35        -7.3770   -3.3465   59.3175 H       1  ZINC000269287897    0.0800
     36 H36        -8.7080   -4.0184   56.6992 H       1  ZINC000269287897    0.0700
     37 H37        -9.0806   -4.6126   58.3415 H       1  ZINC000269287897    0.0700
     38 H38       -11.8062   -1.0724   58.0296 H       1  ZINC000269287897    0.4100
     39 H39       -14.1295   -2.3887   60.2254 H       1  ZINC000269287897    0.0900
     40 H40       -14.3633   -4.0861   59.7432 H       1  ZINC000269287897    0.0600
     41 H41       -12.7897   -3.2957   59.4835 H       1  ZINC000269287897    0.0600
     42 H42       -16.3379   -3.3428   58.4101 H       1  ZINC000269287897    0.1300
     43 H43       -18.0696   -1.7893   56.3450 H       1  ZINC000269287897    0.0700
     44 H44       -17.5309   -2.7991   54.9819 H       1  ZINC000269287897    0.0700
     45 H45       -17.8884   -3.5472   56.5569 H       1  ZINC000269287897    0.0700
     46 H46       -15.4808   -1.5493   54.6362 H       1  ZINC000269287897    0.1400
     47 H47        -9.5093   -1.5079   59.5377 H       1  ZINC000269287897    0.0700
     48 H48        -9.8075   -0.6272   58.0079 H       1  ZINC000269287897    0.0900
@<TRIPOS>BOND
     1     1     2    1
     2     1    25    1
     3     1    26    1
     4     1    27    1
     5     2     3    1
     6     3     4    1
     7     3    28    1
     8     3    29    1
     9     4     5    1
    10     4    30    1
    11     4    31    1
    12     5     6    1
    13     6     7    1
    14     6    32    1
    15     6    33    1
    16     7     8    1
    17     7    24    1
    18     7     9    1
    19     9    10    1
    20     9    34    1
    21     9    35    1
    22    10    11    1
    23    10    36    1
    24    10    37    1
    25    11    12   am
    26    11    24    1
    27    12    13    2
    28    12    14   am
    29    14    15    1
    30    14    38    1
    31    15    22   ar
    32    15    16   ar
    33    16    17    1
    34    16    18   ar
    35    17    39    1
    36    17    40    1
    37    17    41    1
    38    18    19   ar
    39    18    42    1
    40    19    20    1
    41    19    21   ar
    42    20    43    1
    43    20    44    1
    44    20    45    1
    45    21    22   ar
    46    21    46    1
    47    22    23    1
    48    24    47    1
    49    24    48    1
@<TRIPOS>SUBSTRUCTURE
     1 ZINC000269287897        1 TEMP              0 ****  ****    0 ROOT


##########                                Name:    ZINC000518937710
##########                DOCK_Rotatable_Bonds:                   6
##########                         Heavy_Atoms:                  25
##########                    Molecular_Weight:             397.421
##########                DOCK_Rotatable_Bonds:                   6
##########                       Formal_Charge:          -0.0199997
##########                     HBond_Acceptors:                  11
##########                        HBond_Donors:                   0
##########                         Heavy_Atoms:                  25
##########                          Grid_Score:          -28.315680
##########                     Grid_vdw_energy:          -28.773571
##########                      Grid_es_energy:            0.457891
##########           Internal_energy_repulsive:           18.557089

@<TRIPOS>MOLECULE
ZINC000518937710
 42 44 1 0 0
SMALL
USER_CHARGES


@<TRIPOS>ATOM
      1 C1        -12.0328   -0.2878   59.3491 C.3     1  ZINC000518937710   -0.1900
      2 C2        -12.1895   -1.2304   58.1542 C.3     1  ZINC000518937710    0.1700
      3 H3        -11.7636   -2.2031   58.4004 H       1  ZINC000518937710    0.1100
      4 C4        -13.6746   -1.3926   57.8239 C.3     1  ZINC000518937710   -0.6600
      5 S5        -14.3070   -2.9015   58.6074 S.o2    1  ZINC000518937710    2.4000
      6 C6        -13.5288   -4.1983   57.6058 C.3     1  ZINC000518937710   -0.6600
      7 O7        -13.7885   -2.9773   59.9283 O.2     1  ZINC000518937710   -0.9200
      8 O8        -15.7130   -2.9593   58.4096 O.2     1  ZINC000518937710   -0.9300
      9 N9        -11.4899   -0.6704   56.9952 N.am    1  ZINC000518937710   -0.9600
     10 C10       -11.6258    0.7527   56.6749 C.3     1  ZINC000518937710    0.0800
     11 C11       -11.9687    1.1220   55.2302 C.3     1  ZINC000518937710   -0.1800
     12 C12       -13.0240    1.2684   56.3284 C.3     1  ZINC000518937710   -0.1800
     13 S13       -10.5455   -1.6460   56.0472 S.o2    1  ZINC000518937710    2.6900
     14 O14       -11.3638   -2.7405   55.6576 O.2     1  ZINC000518937710   -0.9400
     15 O15        -9.8945   -0.7924   55.1163 O.2     1  ZINC000518937710   -0.9400
     16 C16        -9.2823   -2.3118   57.0796 C.ar    1  ZINC000518937710   -0.6400
     17 C17        -9.3399   -3.6348   57.4760 C.ar    1  ZINC000518937710   -0.0300
     18 C18        -8.3506   -4.1606   58.2860 C.ar    1  ZINC000518937710   -0.1300
     19 C19        -7.2992   -3.3656   58.7025 C.ar    1  ZINC000518937710   -0.0300
     20 C20        -7.2350   -2.0388   58.3092 C.ar    1  ZINC000518937710    0.0200
     21 C21        -8.2289   -1.5105   57.4890 C.ar    1  ZINC000518937710    0.1900
     22 O22        -7.9419   -0.1983   57.2456 O.3     1  ZINC000518937710   -0.2800
     23 C23        -6.9861    0.1796   58.2540 C.3     1  ZINC000518937710    0.5700
     24 F24        -6.0711    1.1054   57.7415 F       1  ZINC000518937710   -0.1200
     25 F25        -7.6366    0.7031   59.3765 F       1  ZINC000518937710   -0.1400
     26 O26        -6.3229   -1.0589   58.5759 O.3     1  ZINC000518937710   -0.2900
     27 H27       -12.4256    0.6954   59.0902 H       1  ZINC000518937710    0.1000
     28 H28       -12.5836   -0.6864   60.2009 H       1  ZINC000518937710    0.0800
     29 H29       -10.9774   -0.2009   59.6073 H       1  ZINC000518937710    0.0700
     30 H30       -14.2263   -0.5303   58.1982 H       1  ZINC000518937710    0.1600
     31 H31       -13.8009   -1.4638   56.7436 H       1  ZINC000518937710    0.1400
     32 H32       -12.4476   -4.1603   57.7387 H       1  ZINC000518937710    0.1300
     33 H33       -13.8996   -5.1733   57.9221 H       1  ZINC000518937710    0.1300
     34 H34       -13.7716   -4.0406   56.5550 H       1  ZINC000518937710    0.1300
     35 H35       -10.9634    1.4232   57.2224 H       1  ZINC000518937710    0.1500
     36 H36       -11.5319    2.0356   54.8271 H       1  ZINC000518937710    0.1100
     37 H37       -12.0933    0.3061   54.5183 H       1  ZINC000518937710    0.1000
     38 H38       -13.8427    0.5489   56.3389 H       1  ZINC000518937710    0.1000
     39 H39       -13.2813    2.2784   56.6477 H       1  ZINC000518937710    0.1000
     40 H40       -10.1598   -4.2590   57.1525 H       1  ZINC000518937710    0.1600
     41 H41        -8.3994   -5.1945   58.5942 H       1  ZINC000518937710    0.1600
     42 H42        -6.5277   -3.7791   59.3352 H       1  ZINC000518937710    0.1500
@<TRIPOS>BOND
     1     1     2    1
     2     1    27    1
     3     1    28    1
     4     1    29    1
     5     2     3    1
     6     2     4    1
     7     2     9    1
     8     4     5    1
     9     4    30    1
    10     4    31    1
    11     5     6    1
    12     5     7    2
    13     5     8    2
    14     6    32    1
    15     6    33    1
    16     6    34    1
    17     9    10    1
    18     9    13   am
    19    10    12    1
    20    10    11    1
    21    10    35    1
    22    11    12    1
    23    11    36    1
    24    11    37    1
    25    12    38    1
    26    12    39    1
    27    13    14    2
    28    13    15    2
    29    13    16    1
    30    16    21   ar
    31    16    17   ar
    32    17    18   ar
    33    17    40    1
    34    18    19   ar
    35    18    41    1
    36    19    20   ar
    37    19    42    1
    38    20    26    1
    39    20    21   ar
    40    21    22    1
    41    22    23    1
    42    23    24    1
    43    23    25    1
    44    23    26    1
@<TRIPOS>SUBSTRUCTURE
     1 ZINC000518937710        1 TEMP              0 ****  ****    0 ROOT


##########                                Name:    ZINC000326056918
##########                DOCK_Rotatable_Bonds:                   6
##########                         Heavy_Atoms:                  24
##########                    Molecular_Weight:             408.326
##########                DOCK_Rotatable_Bonds:                   6
##########                       Formal_Charge:         -0.00999978
##########                     HBond_Acceptors:                   9
##########                        HBond_Donors:                   0
##########                         Heavy_Atoms:                  24
##########                          Grid_Score:          -28.306446
##########                     Grid_vdw_energy:          -27.314941
##########                      Grid_es_energy:           -0.991504
##########           Internal_energy_repulsive:           26.163723

@<TRIPOS>MOLECULE
ZINC000326056918
 39 40 1 0 0
SMALL
USER_CHARGES


@<TRIPOS>ATOM
      1 C1        -17.3371   -2.3843   57.2914 C.3     1  ZINC000326056918    0.0400
      2 O2        -16.3802   -1.7800   58.2010 O.3     1  ZINC000326056918   -0.3500
      3 C3        -15.3954   -1.0402   57.6510 C.2     1  ZINC000326056918    0.5000
      4 O4        -15.1490   -1.1415   56.4643 O.2     1  ZINC000326056918   -0.4300
      5 C5        -14.6231   -0.1154   58.4825 C.2     1  ZINC000326056918   -0.1600
      6 C6        -13.6463   -0.4732   59.3701 C.2     1  ZINC000326056918   -0.6200
      7 S7        -13.1583   -2.1425   59.6526 S.o2    1  ZINC000326056918    2.6900
      8 O8        -11.8335   -2.0923   60.1641 O.2     1  ZINC000326056918   -0.9100
      9 O9        -14.2344   -2.7640   60.3418 O.2     1  ZINC000326056918   -0.9400
     10 N10       -13.0609   -2.8817   58.1740 N.am    1  ZINC000326056918   -0.9900
     11 C11       -13.9008   -4.0455   57.8800 C.3     1  ZINC000326056918    0.0900
     12 C12       -12.1347   -2.3719   57.1597 C.3     1  ZINC000326056918    0.1500
     13 C13       -10.7272   -2.7744   57.5172 C.ar    1  ZINC000326056918   -0.0900
     14 C14       -10.4226   -4.1052   57.7316 C.ar    1  ZINC000326056918   -0.0800
     15 C15        -9.1318   -4.4753   58.0599 C.ar    1  ZINC000326056918   -0.1100
     16 C16        -8.1440   -3.5135   58.1738 C.ar    1  ZINC000326056918   -0.0200
     17 Cl17       -6.5229   -3.9784   58.5856 Cl      1  ZINC000326056918   -0.0600
     18 C18        -8.4482   -2.1811   57.9587 C.ar    1  ZINC000326056918   -0.1100
     19 C19        -9.7387   -1.8121   57.6251 C.ar    1  ZINC000326056918   -0.0300
     20 Cl20      -10.1213   -0.1404   57.3546 Cl      1  ZINC000326056918   -0.0100
     21 C21       -13.0827    0.5989   60.0191 C.2     1  ZINC000326056918   -0.0400
     22 C22       -11.9862    0.4402   61.0407 C.3     1  ZINC000326056918   -0.1100
     23 C23       -13.5783    1.7944   59.6774 C.2     1  ZINC000326056918   -0.2600
     24 S24       -14.7977    1.6343   58.4948 S.3     1  ZINC000326056918    0.3100
     25 H25       -18.0736   -2.9502   57.8620 H       1  ZINC000326056918    0.1100
     26 H26       -17.8407   -1.6031   56.7221 H       1  ZINC000326056918    0.0700
     27 H27       -16.8154   -3.0536   56.6071 H       1  ZINC000326056918    0.0700
     28 H28       -14.8779   -3.7099   57.5326 H       1  ZINC000326056918    0.0600
     29 H29       -13.4274   -4.6489   57.1055 H       1  ZINC000326056918    0.0700
     30 H30       -14.0221   -4.6435   58.7832 H       1  ZINC000326056918    0.0900
     31 H31       -12.3958   -2.7886   56.1870 H       1  ZINC000326056918    0.1100
     32 H32       -12.2026   -1.2848   57.1193 H       1  ZINC000326056918    0.0900
     33 H33       -11.1935   -4.8565   57.6429 H       1  ZINC000326056918    0.1400
     34 H34        -8.8945   -5.5155   58.2281 H       1  ZINC000326056918    0.1400
     35 H35        -7.6773   -1.4298   58.0474 H       1  ZINC000326056918    0.1500
     36 H36       -11.0248    0.3634   60.5328 H       1  ZINC000326056918    0.0900
     37 H37       -11.9789    1.3058   61.7033 H       1  ZINC000326056918    0.0700
     38 H38       -12.1618   -0.4631   61.6249 H       1  ZINC000326056918    0.0900
     39 H39       -13.2478    2.7352   60.0921 H       1  ZINC000326056918    0.1800
@<TRIPOS>BOND
     1     1     2    1
     2     1    25    1
     3     1    26    1
     4     1    27    1
     5     2     3    1
     6     3     4    2
     7     3     5    1
     8     5    24    1
     9     5     6    2
    10     6     7    1
    11     6    21    1
    12     7     8    2
    13     7     9    2
    14     7    10   am
    15    10    11    1
    16    10    12    1
    17    11    28    1
    18    11    29    1
    19    11    30    1
    20    12    13    1
    21    12    31    1
    22    12    32    1
    23    13    19   ar
    24    13    14   ar
    25    14    15   ar
    26    14    33    1
    27    15    16   ar
    28    15    34    1
    29    16    17    1
    30    16    18   ar
    31    18    19   ar
    32    18    35    1
    33    19    20    1
    34    21    22    1
    35    21    23    2
    36    22    36    1
    37    22    37    1
    38    22    38    1
    39    23    24    1
    40    23    39    1
@<TRIPOS>SUBSTRUCTURE
     1 ZINC000326056918        1 TEMP              0 ****  ****    0 ROOT


##########                                Name:    ZINC000462219577
##########                DOCK_Rotatable_Bonds:                   8
##########                         Heavy_Atoms:                  31
##########                    Molecular_Weight:             418.539
##########                DOCK_Rotatable_Bonds:                   8
##########                       Formal_Charge:         -0.00999914
##########                     HBond_Acceptors:                   6
##########                        HBond_Donors:                   2
##########                         Heavy_Atoms:                  31
##########                          Grid_Score:          -28.295410
##########                     Grid_vdw_energy:          -27.220295
##########                      Grid_es_energy:           -1.075116
##########           Internal_energy_repulsive:           11.952557

@<TRIPOS>MOLECULE
ZINC000462219577
 61 64 1 0 0
SMALL
USER_CHARGES


@<TRIPOS>ATOM
      1 C1         -9.3224    0.6826   53.6539 C.3     1  ZINC000462219577   -0.0700
      2 C2         -9.9356    1.7082   52.7355 C.2     1  ZINC000462219577    0.0800
      3 N3        -11.2082    2.0026   52.6554 N.2     1  ZINC000462219577   -0.2900
      4 N4        -11.3664    3.0022   51.6868 N.pl3   1  ZINC000462219577   -0.3200
      5 C5        -12.5777    3.5934   51.3015 C.ar    1  ZINC000462219577    0.1500
      6 C6        -13.2543    4.4290   52.1799 C.ar    1  ZINC000462219577   -0.1100
      7 C7        -14.4476    5.0099   51.7974 C.ar    1  ZINC000462219577   -0.1000
      8 C8        -14.9687    4.7597   50.5412 C.ar    1  ZINC000462219577   -0.1200
      9 C9        -14.2973    3.9275   49.6643 C.ar    1  ZINC000462219577   -0.1000
     10 C10       -13.1003    3.3490   50.0387 C.ar    1  ZINC000462219577   -0.1300
     11 C11       -10.1437    3.2962   51.1896 C.2     1  ZINC000462219577    0.0900
     12 C12        -9.8397    4.3165   50.1231 C.3     1  ZINC000462219577   -0.0800
     13 C13        -8.5052    4.9972   50.4342 C.3     1  ZINC000462219577    0.1700
     14 H14        -8.3915    5.0979   51.5135 H       1  ZINC000462219577    0.1000
     15 C15        -8.4765    6.3832   49.7867 C.3     1  ZINC000462219577   -0.1600
     16 N16        -7.4076    4.1864   49.9010 N.am    1  ZINC000462219577   -0.7400
     17 C17        -6.1707    4.2992   50.4242 C.2     1  ZINC000462219577    0.7100
     18 O18        -5.9661    5.0728   51.3396 O.2     1  ZINC000462219577   -0.5800
     19 N19        -5.1605    3.5545   49.9326 N.am    1  ZINC000462219577   -0.7400
     20 C20        -3.8164    3.6759   50.5025 C.3     1  ZINC000462219577    0.1600
     21 H21        -3.6737    4.6854   50.8881 H       1  ZINC000462219577    0.1000
     22 C22        -3.6491    2.6643   51.6405 C.3     1  ZINC000462219577   -0.1700
     23 C23        -3.7754    1.2470   51.0756 C.3     1  ZINC000462219577    0.0700
     24 O24        -2.7965    1.0545   50.0525 O.3     1  ZINC000462219577   -0.3700
     25 C25        -2.9328    1.9415   48.9403 C.3     1  ZINC000462219577    0.1400
     26 H26        -3.9183    1.8141   48.4923 H       1  ZINC000462219577    0.0600
     27 C27        -1.8714    1.6305   47.9166 C.ar    1  ZINC000462219577   -0.0900
     28 C28        -2.1764    1.6760   46.5691 C.ar    1  ZINC000462219577   -0.0900
     29 C29        -1.2028    1.3908   45.6301 C.ar    1  ZINC000462219577   -0.1200
     30 C30         0.0758    1.0605   46.0386 C.ar    1  ZINC000462219577   -0.1200
     31 C31         0.3810    1.0159   47.3862 C.ar    1  ZINC000462219577   -0.1200
     32 C32        -0.5915    1.3053   48.3250 C.ar    1  ZINC000462219577   -0.1100
     33 C33        -2.7726    3.3888   49.4188 C.3     1  ZINC000462219577   -0.1500
     34 C34        -9.2416    2.5138   51.8261 C.2     1  ZINC000462219577   -0.2600
     35 H35        -9.0586    1.1542   54.6005 H       1  ZINC000462219577    0.0800
     36 H36       -10.0393   -0.1184   53.8342 H       1  ZINC000462219577    0.0700
     37 H37        -8.4258    0.2704   53.1910 H       1  ZINC000462219577    0.0800
     38 H38       -12.8482    4.6242   53.1614 H       1  ZINC000462219577    0.1300
     39 H39       -14.9744    5.6599   52.4802 H       1  ZINC000462219577    0.1300
     40 H40       -15.9021    5.2148   50.2445 H       1  ZINC000462219577    0.1300
     41 H41       -14.7071    3.7334   48.6842 H       1  ZINC000462219577    0.1300
     42 H42       -12.5764    2.6992   49.3533 H       1  ZINC000462219577    0.1300
     43 H43        -9.7781    3.8218   49.1538 H       1  ZINC000462219577    0.0900
     44 H44       -10.6322    5.0646   50.0996 H       1  ZINC000462219577    0.1100
     45 H45        -8.5902    6.2825   48.7073 H       1  ZINC000462219577    0.0600
     46 H46        -9.2931    6.9864   50.1834 H       1  ZINC000462219577    0.0700
     47 H47        -7.5258    6.8681   50.0082 H       1  ZINC000462219577    0.0700
     48 H48        -7.5712    3.5684   49.1715 H       1  ZINC000462219577    0.3900
     49 H49        -5.3236    2.9382   49.2015 H       1  ZINC000462219577    0.3900
     50 H50        -2.6669    2.7885   52.0967 H       1  ZINC000462219577    0.0800
     51 H51        -4.4233    2.8279   52.3901 H       1  ZINC000462219577    0.0800
     52 H52        -3.6146    0.5220   51.8736 H       1  ZINC000462219577    0.1000
     53 H53        -4.7719    1.1105   50.6556 H       1  ZINC000462219577    0.0500
     54 H54        -3.1753    1.9341   46.2499 H       1  ZINC000462219577    0.1300
     55 H55        -1.4412    1.4257   44.5773 H       1  ZINC000462219577    0.1200
     56 H56         0.8363    0.8370   45.3051 H       1  ZINC000462219577    0.1200
     57 H57         1.3799    0.7575   47.7053 H       1  ZINC000462219577    0.1200
     58 H58        -0.3531    1.2704   49.3778 H       1  ZINC000462219577    0.1200
     59 H59        -2.9201    4.0684   48.5794 H       1  ZINC000462219577    0.0800
     60 H60        -1.7728    3.5279   49.8301 H       1  ZINC000462219577    0.0900
     61 H61        -8.1749    2.5074   51.6569 H       1  ZINC000462219577    0.1500
@<TRIPOS>BOND
     1     1     2    1
     2     1    35    1
     3     1    36    1
     4     1    37    1
     5     2    34    1
     6     2     3    2
     7     3     4    1
     8     4     5    1
     9     4    11    1
    10     5    10   ar
    11     5     6   ar
    12     6     7   ar
    13     6    38    1
    14     7     8   ar
    15     7    39    1
    16     8     9   ar
    17     8    40    1
    18     9    10   ar
    19     9    41    1
    20    10    42    1
    21    11    12    1
    22    11    34    2
    23    12    13    1
    24    12    43    1
    25    12    44    1
    26    13    14    1
    27    13    15    1
    28    13    16    1
    29    15    45    1
    30    15    46    1
    31    15    47    1
    32    16    17   am
    33    16    48    1
    34    17    18    2
    35    17    19   am
    36    19    20    1
    37    19    49    1
    38    20    21    1
    39    20    33    1
    40    20    22    1
    41    22    23    1
    42    22    50    1
    43    22    51    1
    44    23    24    1
    45    23    52    1
    46    23    53    1
    47    24    25    1
    48    25    26    1
    49    25    27    1
    50    25    33    1
    51    27    32   ar
    52    27    28   ar
    53    28    29   ar
    54    28    54    1
    55    29    30   ar
    56    29    55    1
    57    30    31   ar
    58    30    56    1
    59    31    32   ar
    60    31    57    1
    61    32    58    1
    62    33    59    1
    63    33    60    1
    64    34    61    1
@<TRIPOS>SUBSTRUCTURE
     1 ZINC000462219577        1 TEMP              0 ****  ****    0 ROOT


##########                                Name:    ZINC000655235556
##########                DOCK_Rotatable_Bonds:                   6
##########                         Heavy_Atoms:                  23
##########                    Molecular_Weight:             336.778
##########                DOCK_Rotatable_Bonds:                   6
##########                       Formal_Charge:         -0.00999996
##########                     HBond_Acceptors:                   8
##########                        HBond_Donors:                   2
##########                         Heavy_Atoms:                  23
##########                          Grid_Score:          -28.282585
##########                     Grid_vdw_energy:          -26.387299
##########                      Grid_es_energy:           -1.895288
##########           Internal_energy_repulsive:            8.568498

@<TRIPOS>MOLECULE
ZINC000655235556
 40 42 1 0 0
SMALL
USER_CHARGES


@<TRIPOS>ATOM
      1 C1        -11.3984   -1.3557   57.0301 C.3     1  ZINC000655235556    0.0200
      2 O2        -10.0829   -1.3057   56.4741 O.3     1  ZINC000655235556   -0.2700
      3 C3         -9.0866   -1.8753   57.1973 C.ar    1  ZINC000655235556    0.2000
      4 C4         -9.1444   -3.2215   57.5222 C.ar    1  ZINC000655235556   -0.2100
      5 C5         -8.1279   -3.8007   58.2589 C.ar    1  ZINC000655235556    0.0300
      6 Cl6        -8.2071   -5.4873   58.6621 Cl      1  ZINC000655235556   -0.0500
      7 C7         -7.0454   -3.0418   58.6770 C.ar    1  ZINC000655235556   -0.1600
      8 C8         -6.9728   -1.7025   58.3624 C.ar    1  ZINC000655235556   -0.0300
      9 C9         -7.9909   -1.1062   57.6144 C.ar    1  ZINC000655235556   -0.1700
     10 C10        -7.9188    0.3270   57.2741 C.2     1  ZINC000655235556    0.5700
     11 O11        -8.1872    0.6987   56.1478 O.2     1  ZINC000655235556   -0.5100
     12 N12        -7.5552    1.2247   58.2113 N.am    1  ZINC000655235556   -0.7300
     13 C13        -7.4852    2.6486   57.8737 C.3     1  ZINC000655235556    0.2100
     14 C14        -6.2071    2.9250   57.1248 C.2     1  ZINC000655235556    0.2600
     15 N15        -6.0842    3.0270   55.8262 N.2     1  ZINC000655235556   -0.5100
     16 C16        -4.8138    3.2753   55.5105 C.2     1  ZINC000655235556    0.2200
     17 C17        -4.2782    3.4586   54.1138 C.3     1  ZINC000655235556    0.1700
     18 H18        -3.4067    4.1128   54.1350 H       1  ZINC000655235556    0.1100
     19 C19        -5.3704    4.0702   53.2103 C.3     1  ZINC000655235556   -0.1400
     20 C20        -5.1599    3.3054   51.8750 C.3     1  ZINC000655235556   -0.1500
     21 C21        -4.7207    1.9148   52.3987 C.3     1  ZINC000655235556    0.0500
     22 O22        -3.9183    2.1873   53.5609 O.3     1  ZINC000655235556   -0.3700
     23 N23        -4.1075    3.3350   56.6088 N.2     1  ZINC000655235556   -0.2800
     24 N24        -4.9953    3.1154   57.6747 N.pl3   1  ZINC000655235556   -0.4700
     25 H25       -11.6948   -2.3954   57.1689 H       1  ZINC000655235556    0.0600
     26 H26       -11.4058   -0.8442   57.9926 H       1  ZINC000655235556    0.0600
     27 H27       -12.0980   -0.8658   56.3528 H       1  ZINC000655235556    0.1100
     28 H28        -9.9846   -3.8186   57.1998 H       1  ZINC000655235556    0.1500
     29 H29        -6.2560   -3.5026   59.2521 H       1  ZINC000655235556    0.1400
     30 H30        -6.1279   -1.1151   58.6905 H       1  ZINC000655235556    0.1400
     31 H31        -7.3399    0.9280   59.1094 H       1  ZINC000655235556    0.4000
     32 H32        -8.3374    2.9163   57.2491 H       1  ZINC000655235556    0.1000
     33 H33        -7.5054    3.2404   58.7888 H       1  ZINC000655235556    0.1100
     34 H34        -6.3632    3.8761   53.6162 H       1  ZINC000655235556    0.0800
     35 H35        -5.2078    5.1394   53.0747 H       1  ZINC000655235556    0.0900
     36 H36        -6.0900    3.2369   51.3108 H       1  ZINC000655235556    0.0900
     37 H37        -4.3734    3.7667   51.2779 H       1  ZINC000655235556    0.0800
     38 H38        -5.5928    1.3204   52.6712 H       1  ZINC000655235556    0.0600
     39 H39        -4.1290    1.3962   51.6444 H       1  ZINC000655235556    0.0900
     40 H40        -4.7764    3.0981   58.6194 H       1  ZINC000655235556    0.4400
@<TRIPOS>BOND
     1     1     2    1
     2     1    25    1
     3     1    26    1
     4     1    27    1
     5     2     3    1
     6     3     9   ar
     7     3     4   ar
     8     4     5   ar
     9     4    28    1
    10     5     6    1
    11     5     7   ar
    12     7     8   ar
    13     7    29    1
    14     8     9   ar
    15     8    30    1
    16     9    10    1
    17    10    11    2
    18    10    12   am
    19    12    13    1
    20    12    31    1
    21    13    14    1
    22    13    32    1
    23    13    33    1
    24    14    24    1
    25    14    15    2
    26    15    16    1
    27    16    17    1
    28    16    23    2
    29    17    18    1
    30    17    22    1
    31    17    19    1
    32    19    20    1
    33    19    34    1
    34    19    35    1
    35    20    21    1
    36    20    36    1
    37    20    37    1
    38    21    22    1
    39    21    38    1
    40    21    39    1
    41    23    24    1
    42    24    40    1
@<TRIPOS>SUBSTRUCTURE
     1 ZINC000655235556        1 TEMP              0 ****  ****    0 ROOT


##########                                Name:    ZINC001318556452
##########                DOCK_Rotatable_Bonds:                   4
##########                         Heavy_Atoms:                  26
##########                    Molecular_Weight:             368.456
##########                DOCK_Rotatable_Bonds:                   4
##########                       Formal_Charge:          -0.0200005
##########                     HBond_Acceptors:                   6
##########                        HBond_Donors:                   1
##########                         Heavy_Atoms:                  26
##########                          Grid_Score:          -28.272293
##########                     Grid_vdw_energy:          -25.893448
##########                      Grid_es_energy:           -2.378844
##########           Internal_energy_repulsive:           13.549636

@<TRIPOS>MOLECULE
ZINC001318556452
 46 48 1 0 0
SMALL
USER_CHARGES


@<TRIPOS>ATOM
      1 C1        -13.6153    0.2216   58.8540 C.3     1  ZINC001318556452   -0.1300
      2 C2        -14.5456   -0.7289   58.1456 C.ar    1  ZINC001318556452   -0.1000
      3 C3        -15.8151   -0.3177   57.7906 C.ar    1  ZINC001318556452   -0.0500
      4 C4        -16.2702    1.0824   58.1126 C.3     1  ZINC001318556452   -0.4100
      5 S5        -17.1424    1.0840   59.7031 S.o     1  ZINC001318556452    1.2500
      6 C6        -17.6042    2.8255   59.9136 C.3     1  ZINC001318556452   -0.4900
      7 O7        -16.2439    0.7040   60.7364 O.2     1  ZINC001318556452   -0.8400
      8 C8        -16.6692   -1.1892   57.1396 C.ar    1  ZINC001318556452   -0.1200
      9 C9        -16.2558   -2.4748   56.8428 C.ar    1  ZINC001318556452   -0.1000
     10 C10       -14.9876   -2.8928   57.1958 C.ar    1  ZINC001318556452   -0.1200
     11 C11       -14.1250   -2.0181   57.8438 C.ar    1  ZINC001318556452    0.1400
     12 N12       -12.8406   -2.4378   58.2021 N.am    1  ZINC001318556452   -0.6600
     13 C13       -11.8179   -2.2914   57.3366 C.2     1  ZINC001318556452    0.5600
     14 O14       -12.0121   -1.7944   56.2450 O.2     1  ZINC001318556452   -0.5000
     15 C15       -10.4556   -2.7365   57.7167 C.2     1  ZINC001318556452   -0.0300
     16 C16       -10.1898   -4.0574   57.9401 C.2     1  ZINC001318556452   -0.1600
     17 C17        -8.8373   -4.4651   58.3127 C.2     1  ZINC001318556452    0.5300
     18 O18        -8.5994   -5.6431   58.5123 O.2     1  ZINC001318556452   -0.5200
     19 N19        -7.8512   -3.5600   58.4383 N.am    1  ZINC001318556452   -0.5200
     20 C20        -6.5081   -4.0094   58.8126 C.3     1  ZINC001318556452    0.0600
     21 C21        -8.0783   -2.2177   58.2214 C.ar    1  ZINC001318556452    0.1800
     22 C22        -7.0432   -1.2964   58.3567 C.ar    1  ZINC001318556452   -0.1700
     23 C23        -7.2841    0.0423   58.1370 C.ar    1  ZINC001318556452   -0.0600
     24 C24        -8.5510    0.4838   57.7813 C.ar    1  ZINC001318556452   -0.1500
     25 C25        -9.5814   -0.4027   57.6429 C.ar    1  ZINC001318556452   -0.0600
     26 C26        -9.3589   -1.7661   57.8553 C.ar    1  ZINC001318556452   -0.1100
     27 H27       -13.0358    0.7791   58.1181 H       1  ZINC001318556452    0.0800
     28 H28       -14.1975    0.9162   59.4597 H       1  ZINC001318556452    0.0800
     29 H29       -12.9396   -0.3426   59.4968 H       1  ZINC001318556452    0.0700
     30 H30       -15.4039    1.7413   58.1727 H       1  ZINC001318556452    0.1000
     31 H31       -16.9415    1.4353   57.3298 H       1  ZINC001318556452    0.1300
     32 H32       -18.2422    3.1349   59.0857 H       1  ZINC001318556452    0.1100
     33 H33       -18.1435    2.9474   60.8530 H       1  ZINC001318556452    0.1100
     34 H34       -16.7046    3.4407   59.9285 H       1  ZINC001318556452    0.0800
     35 H35       -17.6615   -0.8649   56.8628 H       1  ZINC001318556452    0.1200
     36 H36       -16.9254   -3.1529   56.3346 H       1  ZINC001318556452    0.1300
     37 H37       -14.6654   -3.8972   56.9639 H       1  ZINC001318556452    0.1500
     38 H38       -12.6855   -2.8345   59.0736 H       1  ZINC001318556452    0.4100
     39 H39       -10.9732   -4.7945   57.8426 H       1  ZINC001318556452    0.1600
     40 H40        -6.5101   -5.0915   58.9431 H       1  ZINC001318556452    0.1000
     41 H41        -5.8025   -3.7393   58.0270 H       1  ZINC001318556452    0.0800
     42 H42        -6.2122   -3.5314   59.7466 H       1  ZINC001318556452    0.0800
     43 H43        -6.0540   -1.6302   58.6334 H       1  ZINC001318556452    0.1400
     44 H44        -6.4795    0.7550   58.2430 H       1  ZINC001318556452    0.1300
     45 H45        -8.7238    1.5365   57.6129 H       1  ZINC001318556452    0.1300
     46 H46       -10.5644   -0.0513   57.3659 H       1  ZINC001318556452    0.1700
@<TRIPOS>BOND
     1     1     2    1
     2     1    27    1
     3     1    28    1
     4     1    29    1
     5     2    11   ar
     6     2     3   ar
     7     3     4    1
     8     3     8   ar
     9     4     5    1
    10     4    30    1
    11     4    31    1
    12     5     6    1
    13     5     7    2
    14     6    32    1
    15     6    33    1
    16     6    34    1
    17     8     9   ar
    18     8    35    1
    19     9    10   ar
    20     9    36    1
    21    10    11   ar
    22    10    37    1
    23    11    12    1
    24    12    13   am
    25    12    38    1
    26    13    14    2
    27    13    15    1
    28    15    26    1
    29    15    16    2
    30    16    17    1
    31    16    39    1
    32    17    18    2
    33    17    19   am
    34    19    20    1
    35    19    21    1
    36    20    40    1
    37    20    41    1
    38    20    42    1
    39    21    26   ar
    40    21    22   ar
    41    22    23   ar
    42    22    43    1
    43    23    24   ar
    44    23    44    1
    45    24    25   ar
    46    24    45    1
    47    25    26   ar
    48    25    46    1
@<TRIPOS>SUBSTRUCTURE
     1 ZINC001318556452        1 TEMP              0 ****  ****    0 ROOT


##########                                Name:    ZINC000957079511
##########                DOCK_Rotatable_Bonds:                   8
##########                         Heavy_Atoms:                  25
##########                    Molecular_Weight:             362.453
##########                DOCK_Rotatable_Bonds:                   8
##########                       Formal_Charge:        -4.32134e-07
##########                     HBond_Acceptors:                   8
##########                        HBond_Donors:                   2
##########                         Heavy_Atoms:                  25
##########                          Grid_Score:          -28.271206
##########                     Grid_vdw_energy:          -26.169092
##########                      Grid_es_energy:           -2.102114
##########           Internal_energy_repulsive:           12.555575

@<TRIPOS>MOLECULE
ZINC000957079511
 47 49 1 0 0
SMALL
USER_CHARGES


@<TRIPOS>ATOM
      1 C1         -7.4017    2.3526   65.0824 C.3     1  ZINC000957079511   -0.0700
      2 C2         -8.2916    1.1539   64.8758 C.2     1  ZINC000957079511    0.0300
      3 C3         -8.6768    0.6497   63.6881 C.2     1  ZINC000957079511   -0.0200
      4 C4         -8.3025    1.1738   62.3256 C.3     1  ZINC000957079511   -0.0600
      5 C5         -9.3621    0.7821   61.3282 C.2     1  ZINC000957079511    0.5100
      6 O6        -10.3457    1.4768   61.1840 O.2     1  ZINC000957079511   -0.5200
      7 N7         -9.2167   -0.3403   60.5964 N.am    1  ZINC000957079511   -0.7200
      8 C8        -10.2477   -0.7221   59.6280 C.3     1  ZINC000957079511    0.1400
      9 H9        -10.6515    0.1559   59.1240 H       1  ZINC000957079511    0.1100
     10 C10       -11.3742   -1.5386   60.3093 C.3     1  ZINC000957079511    0.0800
     11 N11       -11.9642   -2.3449   59.2252 N.am    1  ZINC000957079511   -0.6200
     12 C12       -13.2157   -2.8450   59.2102 C.2     1  ZINC000957079511    0.5400
     13 O13       -13.9602   -2.6443   60.1464 O.2     1  ZINC000957079511   -0.5100
     14 C14       -13.6899   -3.6537   58.0303 C.3     1  ZINC000957079511    0.0500
     15 O15       -15.1180   -3.6335   57.9820 O.3     1  ZINC000957079511   -0.2800
     16 C16       -15.7054   -2.4899   57.5317 C.2     1  ZINC000957079511    0.1200
     17 C17       -17.0237   -2.2827   57.6008 C.2     1  ZINC000957079511   -0.3300
     18 S18       -17.4093   -0.7047   56.9265 S.3     1  ZINC000957079511    0.1300
     19 C19       -15.7119   -0.4040   56.5780 C.2     1  ZINC000957079511   -0.1800
     20 C20       -14.9809   -1.4486   56.9717 C.2     1  ZINC000957079511   -0.1400
     21 C21       -10.9617   -2.5124   58.1629 C.3     1  ZINC000957079511    0.1100
     22 C22        -9.6952   -1.7471   58.6026 C.3     1  ZINC000957079511   -0.1100
     23 H23        -8.9827   -2.4214   59.0779 H       1  ZINC000957079511    0.0900
     24 C24        -9.0518   -1.0353   57.4108 C.3     1  ZINC000957079511   -0.1400
     25 N25        -9.4733   -0.4307   63.9560 N.pl3   1  ZINC000957079511   -0.5600
     26 C26        -9.5472   -0.5491   65.2993 C.2     1  ZINC000957079511    0.2000
     27 N27        -8.8339    0.3990   65.8427 N.2     1  ZINC000957079511   -0.4900
     28 H28        -6.3610    2.0305   65.1190 H       1  ZINC000957079511    0.0700
     29 H29        -7.5368    3.0519   64.2572 H       1  ZINC000957079511    0.0600
     30 H30        -7.6637    2.8423   66.0203 H       1  ZINC000957079511    0.0700
     31 H31        -8.2230    2.2603   62.3634 H       1  ZINC000957079511    0.1000
     32 H32        -7.3448    0.7498   62.0238 H       1  ZINC000957079511    0.1200
     33 H33        -8.4295   -0.8954   60.7108 H       1  ZINC000957079511    0.4000
     34 H34       -10.9592   -2.1867   61.0813 H       1  ZINC000957079511    0.0800
     35 H35       -12.1224   -0.8705   60.7355 H       1  ZINC000957079511    0.0800
     36 H36       -13.2892   -3.2252   57.1117 H       1  ZINC000957079511    0.0900
     37 H37       -13.3444   -4.6824   58.1324 H       1  ZINC000957079511    0.0900
     38 H38       -17.7428   -2.9781   58.0080 H       1  ZINC000957079511    0.1700
     39 H39       -15.3203    0.4917   56.1190 H       1  ZINC000957079511    0.1800
     40 H40       -13.9077   -1.4836   56.8560 H       1  ZINC000957079511    0.1500
     41 H41       -10.7305   -3.5698   58.0348 H       1  ZINC000957079511    0.0800
     42 H42       -11.3391   -2.0974   57.2284 H       1  ZINC000957079511    0.0800
     43 H43        -9.7703   -0.3449   56.9689 H       1  ZINC000957079511    0.0600
     44 H44        -8.1757   -0.4814   57.7482 H       1  ZINC000957079511    0.0600
     45 H45        -8.7511   -1.7725   56.6665 H       1  ZINC000957079511    0.0700
     46 H46        -9.9044   -1.0042   63.3032 H       1  ZINC000957079511    0.4200
     47 H47       -10.1014   -1.3057   65.8350 H       1  ZINC000957079511    0.2100
@<TRIPOS>BOND
     1     1     2    1
     2     1    28    1
     3     1    29    1
     4     1    30    1
     5     2    27    1
     6     2     3    2
     7     3     4    1
     8     3    25    1
     9     4     5    1
    10     4    31    1
    11     4    32    1
    12     5     6    2
    13     5     7   am
    14     7     8    1
    15     7    33    1
    16     8     9    1
    17     8    22    1
    18     8    10    1
    19    10    11    1
    20    10    34    1
    21    10    35    1
    22    11    12   am
    23    11    21    1
    24    12    13    2
    25    12    14    1
    26    14    15    1
    27    14    36    1
    28    14    37    1
    29    15    16    1
    30    16    20    1
    31    16    17    2
    32    17    18    1
    33    17    38    1
    34    18    19    1
    35    19    20    2
    36    19    39    1
    37    20    40    1
    38    21    22    1
    39    21    41    1
    40    21    42    1
    41    22    23    1
    42    22    24    1
    43    24    43    1
    44    24    44    1
    45    24    45    1
    46    25    26    1
    47    25    46    1
    48    26    27    2
    49    26    47    1
@<TRIPOS>SUBSTRUCTURE
     1 ZINC000957079511        1 TEMP              0 ****  ****    0 ROOT


##########                                Name:    ZINC001220212140
##########                DOCK_Rotatable_Bonds:                   6
##########                         Heavy_Atoms:                  28
##########                    Molecular_Weight:             379.459
##########                DOCK_Rotatable_Bonds:                   6
##########                       Formal_Charge:         -0.00999925
##########                     HBond_Acceptors:                   6
##########                        HBond_Donors:                   1
##########                         Heavy_Atoms:                  28
##########                          Grid_Score:          -28.270618
##########                     Grid_vdw_energy:          -27.969803
##########                      Grid_es_energy:           -0.300816
##########           Internal_energy_repulsive:           12.944103

@<TRIPOS>MOLECULE
ZINC001220212140
 53 56 1 0 0
SMALL
USER_CHARGES


@<TRIPOS>ATOM
      1 C1         -5.6923    4.2386   50.6926 C.3     1  ZINC001220212140   -0.1700
      2 C2         -6.4027    3.2394   49.7772 C.3     1  ZINC001220212140    0.0800
      3 H3         -5.9352    3.2200   48.7928 H       1  ZINC001220212140    0.1200
      4 C4         -6.4098    1.8271   50.4083 C.3     1  ZINC001220212140   -0.1100
      5 C5         -7.7375    1.8177   51.1413 C.ar    1  ZINC001220212140   -0.1500
      6 C6         -8.2460    0.9930   52.1192 C.ar    1  ZINC001220212140   -0.0700
      7 C7         -9.5181    1.2242   52.6284 C.ar    1  ZINC001220212140    0.1400
      8 N8        -10.0411    0.3884   53.6243 N.am    1  ZINC001220212140   -0.6800
      9 C9         -9.3666    0.2103   54.7775 C.2     1  ZINC001220212140    0.7200
     10 O10        -8.3043    0.7749   54.9538 O.2     1  ZINC001220212140   -0.5700
     11 N11        -9.8696   -0.5935   55.7352 N.am    1  ZINC001220212140   -0.6300
     12 C12        -9.2414   -0.8754   57.0343 C.3     1  ZINC001220212140    0.0900
     13 C13       -10.1872   -1.8201   57.8053 C.3     1  ZINC001220212140   -0.1100
     14 C14       -11.5598   -1.5666   57.1277 C.3     1  ZINC001220212140   -0.1300
     15 H15       -12.0417   -0.6805   57.5407 H       1  ZINC001220212140    0.1200
     16 C16       -12.4549   -2.7725   57.2527 C.2     1  ZINC001220212140    0.5300
     17 O17       -12.1561   -3.8094   56.6988 O.2     1  ZINC001220212140   -0.5100
     18 N18       -13.5871   -2.6988   57.9800 N.am    1  ZINC001220212140   -0.5700
     19 C19       -14.4572   -3.8711   58.1016 C.3     1  ZINC001220212140    0.0700
     20 C20       -13.9315   -1.5026   58.6189 C.ar    1  ZINC001220212140    0.1400
     21 C21       -14.4790   -0.4560   57.8884 C.ar    1  ZINC001220212140   -0.1100
     22 C22       -14.8178    0.7235   58.5221 C.ar    1  ZINC001220212140   -0.1100
     23 C23       -14.6122    0.8630   59.8824 C.ar    1  ZINC001220212140   -0.1200
     24 C24       -14.0669   -0.1770   60.6125 C.ar    1  ZINC001220212140   -0.1100
     25 C25       -13.7320   -1.3614   59.9860 C.ar    1  ZINC001220212140   -0.1200
     26 C26       -11.1438   -1.3308   55.6565 C.3     1  ZINC001220212140    0.1400
     27 C27       -10.2675    2.2881   52.1454 C.ar    1  ZINC001220212140   -0.1100
     28 C28        -9.7557    3.1099   51.1631 C.ar    1  ZINC001220212140   -0.1200
     29 C29        -8.4831    2.8805   50.6469 C.ar    1  ZINC001220212140    0.0900
     30 O30        -7.8019    3.5520   49.6706 O.3     1  ZINC001220212140   -0.3000
     31 H31        -6.1823    4.2514   51.6662 H       1  ZINC001220212140    0.0600
     32 H32        -4.6503    3.9428   50.8142 H       1  ZINC001220212140    0.0800
     33 H33        -5.7383    5.2335   50.2497 H       1  ZINC001220212140    0.0700
     34 H34        -6.3846    1.0562   49.6382 H       1  ZINC001220212140    0.0900
     35 H35        -5.5797    1.7073   51.1046 H       1  ZINC001220212140    0.0900
     36 H36        -7.6570    0.1674   52.4903 H       1  ZINC001220212140    0.1400
     37 H37       -10.8887   -0.0620   53.4838 H       1  ZINC001220212140    0.4100
     38 H38        -8.2767   -1.3597   56.8823 H       1  ZINC001220212140    0.0700
     39 H39        -9.1091    0.0523   57.5912 H       1  ZINC001220212140    0.0700
     40 H40        -9.8812   -2.8587   57.6801 H       1  ZINC001220212140    0.1000
     41 H41       -10.2231   -1.5522   58.8613 H       1  ZINC001220212140    0.0900
     42 H42       -14.1552   -4.4594   58.9680 H       1  ZINC001220212140    0.0700
     43 H43       -15.4901   -3.5457   58.2256 H       1  ZINC001220212140    0.0800
     44 H44       -14.3738   -4.4805   57.2017 H       1  ZINC001220212140    0.0800
     45 H45       -14.6392   -0.5642   56.8259 H       1  ZINC001220212140    0.1200
     46 H46       -15.2436    1.5377   57.9544 H       1  ZINC001220212140    0.1300
     47 H47       -14.8776    1.7865   60.3755 H       1  ZINC001220212140    0.1300
     48 H48       -13.9069   -0.0645   61.6746 H       1  ZINC001220212140    0.1300
     49 H49       -13.3062   -2.1733   60.5568 H       1  ZINC001220212140    0.1200
     50 H50       -11.8980   -0.7375   55.1395 H       1  ZINC001220212140    0.0900
     51 H51       -10.9942   -2.2828   55.1474 H       1  ZINC001220212140    0.0700
     52 H52       -11.2557    2.4728   52.5401 H       1  ZINC001220212140    0.1300
     53 H53       -10.3451    3.9356   50.7925 H       1  ZINC001220212140    0.1300
@<TRIPOS>BOND
     1     1     2    1
     2     1    31    1
     3     1    32    1
     4     1    33    1
     5     2     3    1
     6     2    30    1
     7     2     4    1
     8     4     5    1
     9     4    34    1
    10     4    35    1
    11     5    29   ar
    12     5     6   ar
    13     6     7   ar
    14     6    36    1
    15     7     8    1
    16     7    27   ar
    17     8     9   am
    18     8    37    1
    19     9    10    2
    20     9    11   am
    21    11    26    1
    22    11    12    1
    23    12    13    1
    24    12    38    1
    25    12    39    1
    26    13    14    1
    27    13    40    1
    28    13    41    1
    29    14    15    1
    30    14    16    1
    31    14    26    1
    32    16    17    2
    33    16    18   am
    34    18    19    1
    35    18    20    1
    36    19    42    1
    37    19    43    1
    38    19    44    1
    39    20    25   ar
    40    20    21   ar
    41    21    22   ar
    42    21    45    1
    43    22    23   ar
    44    22    46    1
    45    23    24   ar
    46    23    47    1
    47    24    25   ar
    48    24    48    1
    49    25    49    1
    50    26    50    1
    51    26    51    1
    52    27    28   ar
    53    27    52    1
    54    28    29   ar
    55    28    53    1
    56    29    30    1
@<TRIPOS>SUBSTRUCTURE
     1 ZINC001220212140        1 TEMP              0 ****  ****    0 ROOT


##########                                Name:    ZINC000130059363
##########                DOCK_Rotatable_Bonds:                   4
##########                         Heavy_Atoms:                  29
##########                    Molecular_Weight:             389.497
##########                DOCK_Rotatable_Bonds:                   4
##########                       Formal_Charge:          -0.0100003
##########                     HBond_Acceptors:                   5
##########                        HBond_Donors:                   0
##########                         Heavy_Atoms:                  29
##########                          Grid_Score:          -28.266050
##########                     Grid_vdw_energy:          -28.158924
##########                      Grid_es_energy:           -0.107127
##########           Internal_energy_repulsive:           30.874083

@<TRIPOS>MOLECULE
ZINC000130059363
 56 60 1 0 0
SMALL
USER_CHARGES


@<TRIPOS>ATOM
      1 C1         -9.7203    3.4801   52.8506 C.3     1  ZINC000130059363   -0.1200
      2 C2         -8.7647    2.4671   52.2747 C.ar    1  ZINC000130059363    0.1900
      3 N3         -7.5949    2.8606   51.8212 N.ar    1  ZINC000130059363   -0.4800
      4 C4         -6.7207    2.0042   51.3056 C.ar    1  ZINC000130059363    0.2000
      5 C5         -5.4155    2.5011   50.8091 C.ar    1  ZINC000130059363   -0.0600
      6 C6         -4.4903    1.6125   50.2628 C.ar    1  ZINC000130059363   -0.1000
      7 C7         -3.2769    2.0810   49.8017 C.ar    1  ZINC000130059363   -0.1200
      8 C8         -2.9776    3.4293   49.8812 C.ar    1  ZINC000130059363   -0.1000
      9 C9         -3.8914    4.3156   50.4227 C.ar    1  ZINC000130059363   -0.1300
     10 C10        -5.1104    3.8596   50.8813 C.ar    1  ZINC000130059363   -0.0700
     11 C11        -7.0146    0.6431   51.2257 C.ar    1  ZINC000130059363   -0.1800
     12 C12        -8.2325    0.1881   51.6908 C.ar    1  ZINC000130059363   -0.0400
     13 C13        -9.1285    1.1193   52.2334 C.ar    1  ZINC000130059363   -0.1900
     14 C14       -10.4437    0.6828   52.7449 C.2     1  ZINC000130059363    0.5700
     15 O15       -11.4557    0.9513   52.1272 O.2     1  ZINC000130059363   -0.5200
     16 N16       -10.5217   -0.0133   53.8963 N.am    1  ZINC000130059363   -0.6000
     17 C17        -9.3091   -0.3418   54.6596 C.3     1  ZINC000130059363    0.1000
     18 C18        -9.4842    0.1732   56.0914 C.3     1  ZINC000130059363   -0.1500
     19 C19       -10.7722   -0.3833   56.6875 C.3     1  ZINC000130059363    0.1500
     20 H20       -10.8882    0.0290   57.6898 H       1  ZINC000130059363    0.0700
     21 C21       -11.9832    0.0378   55.8572 C.3     1  ZINC000130059363   -0.1100
     22 H22       -12.0931    1.1220   55.8792 H       1  ZINC000130059363    0.1000
     23 C23       -13.2285   -0.6313   56.4605 C.3     1  ZINC000130059363   -0.1200
     24 C24       -13.1216   -2.1402   56.2259 C.3     1  ZINC000130059363   -0.1400
     25 C25       -11.7635   -2.6334   56.6340 C.2     1  ZINC000130059363    0.5200
     26 O26       -11.6142   -3.8240   56.8105 O.2     1  ZINC000130059363   -0.5400
     27 N27       -10.7172   -1.8325   56.7976 N.am    1  ZINC000130059363   -0.5700
     28 C28        -9.4280   -2.4386   57.1395 C.3     1  ZINC000130059363    0.0700
     29 C29        -8.7591   -1.9898   58.4402 C.3     1  ZINC000130059363   -0.1800
     30 C30        -9.3878   -3.3812   58.3440 C.3     1  ZINC000130059363   -0.1600
     31 C31       -11.8201   -0.4553   54.4197 C.3     1  ZINC000130059363    0.1100
     32 H32        -9.6082    3.5100   53.9344 H       1  ZINC000130059363    0.0800
     33 H33        -9.5008    4.4637   52.4353 H       1  ZINC000130059363    0.0800
     34 H34       -10.7429    3.1992   52.5986 H       1  ZINC000130059363    0.1000
     35 H35        -4.7226    0.5595   50.2008 H       1  ZINC000130059363    0.1300
     36 H36        -2.5595    1.3937   49.3783 H       1  ZINC000130059363    0.1300
     37 H37        -2.0266    3.7914   49.5194 H       1  ZINC000130059363    0.1300
     38 H38        -3.6520    5.3670   50.4824 H       1  ZINC000130059363    0.1300
     39 H39        -5.8231    4.5524   51.3039 H       1  ZINC000130059363    0.1400
     40 H40        -6.2982   -0.0467   50.8047 H       1  ZINC000130059363    0.1400
     41 H41        -8.4870   -0.8603   51.6412 H       1  ZINC000130059363    0.1400
     42 H42        -9.1655   -1.4222   54.6732 H       1  ZINC000130059363    0.0700
     43 H43        -8.4450    0.1380   54.2001 H       1  ZINC000130059363    0.0900
     44 H44        -8.6366   -0.1468   56.6975 H       1  ZINC000130059363    0.0900
     45 H45        -9.5304    1.2621   56.0815 H       1  ZINC000130059363    0.0800
     46 H46       -13.2734   -0.4278   57.5304 H       1  ZINC000130059363    0.0800
     47 H47       -14.1248   -0.2462   55.9743 H       1  ZINC000130059363    0.0900
     48 H48       -13.8834   -2.6519   56.8140 H       1  ZINC000130059363    0.1000
     49 H49       -13.2807   -2.3534   55.1689 H       1  ZINC000130059363    0.1000
     50 H50        -8.7802   -2.6733   56.2949 H       1  ZINC000130059363    0.1100
     51 H51        -7.6708   -1.9289   58.4515 H       1  ZINC000130059363    0.1100
     52 H52        -9.2781   -1.2433   59.0416 H       1  ZINC000130059363    0.1000
     53 H53       -10.3205   -3.5503   58.8820 H       1  ZINC000130059363    0.1000
     54 H54        -8.7133   -4.2359   58.2920 H       1  ZINC000130059363    0.1000
     55 H55       -12.6208   -0.0485   53.8020 H       1  ZINC000130059363    0.1000
     56 H56       -11.8620   -1.5444   54.4012 H       1  ZINC000130059363    0.0700
@<TRIPOS>BOND
     1     1     2    1
     2     1    32    1
     3     1    33    1
     4     1    34    1
     5     2    13   ar
     6     2     3   ar
     7     3     4   ar
     8     4     5    1
     9     4    11   ar
    10     5    10   ar
    11     5     6   ar
    12     6     7   ar
    13     6    35    1
    14     7     8   ar
    15     7    36    1
    16     8     9   ar
    17     8    37    1
    18     9    10   ar
    19     9    38    1
    20    10    39    1
    21    11    12   ar
    22    11    40    1
    23    12    13   ar
    24    12    41    1
    25    13    14    1
    26    14    15    2
    27    14    16   am
    28    16    31    1
    29    16    17    1
    30    17    18    1
    31    17    42    1
    32    17    43    1
    33    18    19    1
    34    18    44    1
    35    18    45    1
    36    19    20    1
    37    19    27    1
    38    19    21    1
    39    21    22    1
    40    21    23    1
    41    21    31    1
    42    23    24    1
    43    23    46    1
    44    23    47    1
    45    24    25    1
    46    24    48    1
    47    24    49    1
    48    25    26    2
    49    25    27   am
    50    27    28    1
    51    28    30    1
    52    28    29    1
    53    28    50    1
    54    29    30    1
    55    29    51    1
    56    29    52    1
    57    30    53    1
    58    30    54    1
    59    31    55    1
    60    31    56    1
@<TRIPOS>SUBSTRUCTURE
     1 ZINC000130059363        1 TEMP              0 ****  ****    0 ROOT


##########                                Name:    ZINC001058772245
##########                DOCK_Rotatable_Bonds:                  11
##########                         Heavy_Atoms:                  22
##########                    Molecular_Weight:             335.375
##########                DOCK_Rotatable_Bonds:                  11
##########                       Formal_Charge:          0.00999964
##########                     HBond_Acceptors:                   9
##########                        HBond_Donors:                   2
##########                         Heavy_Atoms:                  22
##########                          Grid_Score:          -28.254124
##########                     Grid_vdw_energy:          -28.077387
##########                      Grid_es_energy:           -0.176737
##########           Internal_energy_repulsive:           64.449944

@<TRIPOS>MOLECULE
ZINC001058772245
 41 41 1 0 0
SMALL
USER_CHARGES


@<TRIPOS>ATOM
      1 C1         -7.4167    0.5451   51.1964 C.3     1  ZINC001058772245   -0.1700
      2 C2         -7.7066    1.7989   52.0239 C.3     1  ZINC001058772245   -0.1400
      3 C3         -9.0930    1.6806   52.6601 C.3     1  ZINC001058772245   -0.1500
      4 C4         -6.6674    1.9379   53.1063 C.2     1  ZINC001058772245    0.5300
      5 O5         -6.9729    1.7609   54.2666 O.2     1  ZINC001058772245   -0.5200
      6 N6         -5.3984    2.2588   52.7850 N.am    1  ZINC001058772245   -0.5900
      7 C7         -4.3882    2.3939   53.8373 C.3     1  ZINC001058772245    0.0800
      8 C8         -3.9314    3.8517   53.9216 C.3     1  ZINC001058772245    0.0400
      9 O9         -4.7840    4.5671   54.8177 O.3     1  ZINC001058772245   -0.5700
     10 C10        -5.0293    2.4725   51.3835 C.3     1  ZINC001058772245    0.1100
     11 C11        -3.6944    1.7822   51.0966 C.3     1  ZINC001058772245    0.1000
     12 N12        -3.5490    1.5811   49.6528 N.am    1  ZINC001058772245   -0.7100
     13 C13        -2.3281    1.3746   49.1208 C.2     1  ZINC001058772245    0.6000
     14 O14        -1.3470    1.3538   49.8395 O.2     1  ZINC001058772245   -0.5300
     15 C15        -2.1816    1.1742   47.6691 C.2     1  ZINC001058772245    0.0000
     16 C16        -1.4362    0.1826   47.1313 C.2     1  ZINC001058772245   -0.2200
     17 S17        -1.5231    0.2892   45.4274 S.3     1  ZINC001058772245    0.2300
     18 C18        -2.5489    1.6506   45.5312 C.2     1  ZINC001058772245    0.0000
     19 N19        -2.7772    1.9516   46.7610 N.2     1  ZINC001058772245   -0.4400
     20 C20        -7.6654    3.0298   51.1162 C.3     1  ZINC001058772245    0.2900
     21 F21        -7.4884    2.6246   49.7888 F       1  ZINC001058772245   -0.1900
     22 F22        -8.8681    3.7352   51.2319 F       1  ZINC001058772245   -0.2000
     23 H23        -7.9709    0.5921   50.2591 H       1  ZINC001058772245    0.0800
     24 H24        -6.3489    0.4884   50.9848 H       1  ZINC001058772245    0.0700
     25 H25        -7.7235   -0.3387   51.7560 H       1  ZINC001058772245    0.0900
     26 H26        -9.0517    0.9795   53.4936 H       1  ZINC001058772245    0.0800
     27 H27        -9.4108    2.6581   53.0230 H       1  ZINC001058772245    0.0700
     28 H28        -9.8043    1.3201   51.9170 H       1  ZINC001058772245    0.0900
     29 H29        -4.8165    2.0915   54.7930 H       1  ZINC001058772245    0.0900
     30 H30        -3.5339    1.7582   53.6046 H       1  ZINC001058772245    0.1200
     31 H31        -2.9054    3.8903   54.2876 H       1  ZINC001058772245    0.0600
     32 H32        -3.9815    4.3059   52.9320 H       1  ZINC001058772245    0.0700
     33 H33        -5.7149    4.5714   54.5557 H       1  ZINC001058772245    0.3800
     34 H34        -5.8008    2.0547   50.7368 H       1  ZINC001058772245    0.1000
     35 H35        -4.9342    3.5413   51.1918 H       1  ZINC001058772245    0.0900
     36 H36        -2.8775    2.4052   51.4607 H       1  ZINC001058772245    0.0700
     37 H37        -3.6685    0.8169   51.6023 H       1  ZINC001058772245    0.0700
     38 H38        -4.3314    1.5965   49.0797 H       1  ZINC001058772245    0.4100
     39 H39        -0.8775   -0.5558   47.6871 H       1  ZINC001058772245    0.1900
     40 H40        -2.9526    2.1827   44.6826 H       1  ZINC001058772245    0.2100
     41 H41        -6.8371    3.6729   51.4133 H       1  ZINC001058772245    0.1200
@<TRIPOS>BOND
     1     1     2    1
     2     1    23    1
     3     1    24    1
     4     1    25    1
     5     2     3    1
     6     2     4    1
     7     2    20    1
     8     3    26    1
     9     3    27    1
    10     3    28    1
    11     4     5    2
    12     4     6   am
    13     6     7    1
    14     6    10    1
    15     7     8    1
    16     7    29    1
    17     7    30    1
    18     8     9    1
    19     8    31    1
    20     8    32    1
    21     9    33    1
    22    10    11    1
    23    10    34    1
    24    10    35    1
    25    11    12    1
    26    11    36    1
    27    11    37    1
    28    12    13   am
    29    12    38    1
    30    13    14    2
    31    13    15    1
    32    15    19    1
    33    15    16    2
    34    16    17    1
    35    16    39    1
    36    17    18    1
    37    18    19    2
    38    18    40    1
    39    20    21    1
    40    20    22    1
    41    20    41    1
@<TRIPOS>SUBSTRUCTURE
     1 ZINC001058772245        1 TEMP              0 ****  ****    0 ROOT


##########                                Name:    ZINC000518242403
##########                DOCK_Rotatable_Bonds:                   6
##########                         Heavy_Atoms:                  27
##########                    Molecular_Weight:             370.405
##########                DOCK_Rotatable_Bonds:                   6
##########                       Formal_Charge:          -0.0200004
##########                     HBond_Acceptors:                   7
##########                        HBond_Donors:                   1
##########                         Heavy_Atoms:                  27
##########                          Grid_Score:          -28.250692
##########                     Grid_vdw_energy:          -27.883373
##########                      Grid_es_energy:           -0.367319
##########           Internal_energy_repulsive:           13.477077

@<TRIPOS>MOLECULE
ZINC000518242403
 49 52 1 0 0
SMALL
USER_CHARGES


@<TRIPOS>ATOM
      1 C1         -8.8758    4.6171   49.8932 C.3     1  ZINC000518242403   -0.1800
      2 C2         -7.4637    4.6289   50.4820 C.3     1  ZINC000518242403    0.1000
      3 N3         -7.1185    3.2844   50.9501 N.am    1  ZINC000518242403   -0.6200
      4 C4         -6.3622    2.3783   50.0822 C.3     1  ZINC000518242403    0.1500
      5 C5         -4.8688    2.6907   50.1967 C.3     1  ZINC000518242403    0.0300
      6 H6         -4.6831    3.7178   49.8826 H       1  ZINC000518242403    0.0900
      7 C7         -4.4107    2.5031   51.6494 C.3     1  ZINC000518242403    0.0300
      8 O8         -3.0096    2.7893   51.7181 O.3     1  ZINC000518242403   -0.3000
      9 C9         -2.2236    2.2316   50.7570 C.ar    1  ZINC000518242403    0.0500
     10 C10        -0.8533    2.1584   50.9562 C.ar    1  ZINC000518242403   -0.1100
     11 C11        -0.0418    1.5975   49.9877 C.ar    1  ZINC000518242403   -0.1200
     12 C12        -0.5935    1.1083   48.8188 C.ar    1  ZINC000518242403   -0.1200
     13 C13        -1.9591    1.1767   48.6147 C.ar    1  ZINC000518242403   -0.1100
     14 C14        -2.7790    1.7370   49.5825 C.ar    1  ZINC000518242403    0.0500
     15 O15        -4.1225    1.7906   49.3703 O.3     1  ZINC000518242403   -0.3000
     16 C16        -7.4968    2.8810   52.1792 C.2     1  ZINC000518242403    0.7100
     17 O17        -8.1258    3.6325   52.8990 O.2     1  ZINC000518242403   -0.5700
     18 N18        -7.1778    1.6447   52.6105 N.am    1  ZINC000518242403   -0.6800
     19 C19        -7.5710    1.2252   53.8885 C.ar    1  ZINC000518242403    0.1700
     20 C20        -6.8103    1.5704   54.9969 C.ar    1  ZINC000518242403   -0.1000
     21 C21        -7.1997    1.1560   56.2598 C.ar    1  ZINC000518242403    0.0500
     22 C22        -8.3546    0.3931   56.4147 C.ar    1  ZINC000518242403    0.0200
     23 C23        -9.1107    0.0500   55.3056 C.ar    1  ZINC000518242403   -0.0800
     24 C24        -8.7247    0.4691   54.0467 C.ar    1  ZINC000518242403   -0.1000
     25 C25        -9.5496    0.0939   52.8426 C.3     1  ZINC000518242403   -0.1100
     26 O26        -8.5188    0.1154   57.7420 O.3     1  ZINC000518242403   -0.3100
     27 C27        -7.2376    0.3676   58.3487 C.3     1  ZINC000518242403    0.2100
     28 O28        -6.6408    1.3563   57.4890 O.3     1  ZINC000518242403   -0.3100
     29 H29        -8.9146    3.9199   49.0562 H       1  ZINC000518242403    0.0600
     30 H30        -9.5861    4.3055   50.6589 H       1  ZINC000518242403    0.0600
     31 H31        -9.1326    5.6175   49.5448 H       1  ZINC000518242403    0.0700
     32 H32        -6.7534    4.9406   49.7161 H       1  ZINC000518242403    0.1000
     33 H33        -7.4248    5.3262   51.3188 H       1  ZINC000518242403    0.0700
     34 H34        -6.5422    1.3476   50.3880 H       1  ZINC000518242403    0.1100
     35 H35        -6.6832    2.5122   49.0492 H       1  ZINC000518242403    0.0900
     36 H36        -4.9579    3.1866   52.2985 H       1  ZINC000518242403    0.1300
     37 H37        -4.5915    1.4745   51.9618 H       1  ZINC000518242403    0.0800
     38 H38        -0.4197    2.5401   51.8686 H       1  ZINC000518242403    0.1300
     39 H39         1.0252    1.5414   50.1449 H       1  ZINC000518242403    0.1300
     40 H40         0.0431    0.6719   48.0636 H       1  ZINC000518242403    0.1300
     41 H41        -2.3878    0.7937   47.7004 H       1  ZINC000518242403    0.1300
     42 H42        -6.6760    1.0451   52.0364 H       1  ZINC000518242403    0.4100
     43 H43        -5.9150    2.1618   54.8746 H       1  ZINC000518242403    0.1500
     44 H44       -10.0062   -0.5415   55.4257 H       1  ZINC000518242403    0.1400
     45 H45       -10.3049    0.8599   52.6667 H       1  ZINC000518242403    0.0800
     46 H46        -8.9024    0.0146   51.9691 H       1  ZINC000518242403    0.0700
     47 H47       -10.0381   -0.8639   53.0210 H       1  ZINC000518242403    0.0800
     48 H48        -7.3623    0.7620   59.3572 H       1  ZINC000518242403    0.1300
     49 H49        -6.6354   -0.5409   58.3635 H       1  ZINC000518242403    0.0900
@<TRIPOS>BOND
     1     1     2    1
     2     1    29    1
     3     1    30    1
     4     1    31    1
     5     2     3    1
     6     2    32    1
     7     2    33    1
     8     3     4    1
     9     3    16   am
    10     4     5    1
    11     4    34    1
    12     4    35    1
    13     5     6    1
    14     5    15    1
    15     5     7    1
    16     7     8    1
    17     7    36    1
    18     7    37    1
    19     8     9    1
    20     9    14   ar
    21     9    10   ar
    22    10    11   ar
    23    10    38    1
    24    11    12   ar
    25    11    39    1
    26    12    13   ar
    27    12    40    1
    28    13    14   ar
    29    13    41    1
    30    14    15    1
    31    16    17    2
    32    16    18   am
    33    18    19    1
    34    18    42    1
    35    19    24   ar
    36    19    20   ar
    37    20    21   ar
    38    20    43    1
    39    21    28    1
    40    21    22   ar
    41    22    23   ar
    42    22    26    1
    43    23    24   ar
    44    23    44    1
    45    24    25    1
    46    25    45    1
    47    25    46    1
    48    25    47    1
    49    26    27    1
    50    27    28    1
    51    27    48    1
    52    27    49    1
@<TRIPOS>SUBSTRUCTURE
     1 ZINC000518242403        1 TEMP              0 ****  ****    0 ROOT


##########                                Name:    ZINC000859608860
##########                DOCK_Rotatable_Bonds:                   8
##########                         Heavy_Atoms:                  24
##########                    Molecular_Weight:             394.268
##########                DOCK_Rotatable_Bonds:                   8
##########                       Formal_Charge:          -0.0200003
##########                     HBond_Acceptors:                   6
##########                        HBond_Donors:                   1
##########                         Heavy_Atoms:                  24
##########                          Grid_Score:          -28.250263
##########                     Grid_vdw_energy:          -27.339630
##########                      Grid_es_energy:           -0.910632
##########           Internal_energy_repulsive:            8.093254

@<TRIPOS>MOLECULE
ZINC000859608860
 44 45 1 0 0
SMALL
USER_CHARGES


@<TRIPOS>ATOM
      1 C1         -8.4036   -0.0295   59.3088 C.3     1  ZINC000859608860   -0.1400
      2 C2         -8.4424    0.9625   58.1446 C.3     1  ZINC000859608860   -0.0800
      3 C3         -9.4271    2.0884   58.4664 C.3     1  ZINC000859608860   -0.1400
      4 C4         -7.0467    1.5515   57.9298 C.3     1  ZINC000859608860   -0.1400
      5 C5         -8.8920    0.2395   56.8733 C.3     1  ZINC000859608860    0.1300
      6 N6         -8.8989    1.1822   55.7520 N.am    1  ZINC000859608860   -0.7300
      7 C7         -8.7042    0.7360   54.4953 C.2     1  ZINC000859608860    0.5100
      8 O8         -8.5216   -0.4457   54.2928 O.2     1  ZINC000859608860   -0.5100
      9 C9         -8.7131    1.7055   53.3415 C.3     1  ZINC000859608860    0.0500
     10 O10        -7.5121    1.5226   52.5462 O.3     1  ZINC000859608860   -0.3100
     11 C11        -6.3864    2.1147   52.9926 C.2     1  ZINC000859608860    0.5600
     12 O12        -6.3922    2.7105   54.0520 O.2     1  ZINC000859608860   -0.5100
     13 C13        -5.1507    2.0400   52.1972 C.2     1  ZINC000859608860   -0.0400
     14 C14        -5.0694    1.8195   50.8523 C.2     1  ZINC000859608860    0.0500
     15 N15        -3.7468    1.8286   50.5323 N.pl3   1  ZINC000859608860   -0.4100
     16 C16        -3.2025    1.6411   49.2536 C.ar    1  ZINC000859608860    0.1400
     17 C17        -3.7618    2.2855   48.1585 C.ar    1  ZINC000859608860   -0.1200
     18 C18        -3.2236    2.0996   46.9002 C.ar    1  ZINC000859608860   -0.0600
     19 C19        -2.1279    1.2719   46.7305 C.ar    1  ZINC000859608860   -0.1000
     20 Br20       -1.3937    1.0195   45.0063 Br      1  ZINC000859608860   -0.0300
     21 C21        -1.5684    0.6289   47.8204 C.ar    1  ZINC000859608860   -0.0600
     22 C22        -2.0999    0.8153   49.0815 C.ar    1  ZINC000859608860   -0.1200
     23 C23        -3.0479    2.0530   51.6787 C.2     1  ZINC000859608860    0.2000
     24 N24        -3.8846    2.1837   52.6668 N.2     1  ZINC000859608860   -0.4300
     25 H25        -9.3979   -0.4491   59.4619 H       1  ZINC000859608860    0.0500
     26 H26        -7.7020   -0.8315   59.0795 H       1  ZINC000859608860    0.0600
     27 H27        -8.0832    0.4856   60.2145 H       1  ZINC000859608860    0.0600
     28 H28        -9.1067    2.6034   59.3720 H       1  ZINC000859608860    0.0600
     29 H29        -9.4546    2.7951   57.6370 H       1  ZINC000859608860    0.0600
     30 H30       -10.4214    1.6688   58.6195 H       1  ZINC000859608860    0.0500
     31 H31        -6.3451    0.7494   57.7005 H       1  ZINC000859608860    0.0600
     32 H32        -7.0743    2.2582   57.1004 H       1  ZINC000859608860    0.0600
     33 H33        -6.7264    2.0665   58.8355 H       1  ZINC000859608860    0.0600
     34 H34        -8.2034   -0.5773   56.6571 H       1  ZINC000859608860    0.0700
     35 H35        -9.8957   -0.1600   57.0183 H       1  ZINC000859608860    0.0700
     36 H36        -9.0437    2.1276   55.9140 H       1  ZINC000859608860    0.4000
     37 H37        -9.5908    1.5240   52.7212 H       1  ZINC000859608860    0.1000
     38 H38        -8.7434    2.7256   53.7244 H       1  ZINC000859608860    0.1000
     39 H39        -5.8954    1.6669   50.1734 H       1  ZINC000859608860    0.2000
     40 H40        -4.6173    2.9314   48.2904 H       1  ZINC000859608860    0.1400
     41 H41        -3.6587    2.6004   46.0480 H       1  ZINC000859608860    0.1500
     42 H42        -0.7132   -0.0167   47.6854 H       1  ZINC000859608860    0.1500
     43 H43        -1.6628    0.3131   49.9318 H       1  ZINC000859608860    0.1500
     44 H44        -1.9724    2.1162   51.7552 H       1  ZINC000859608860    0.2200
@<TRIPOS>BOND
     1     1     2    1
     2     1    25    1
     3     1    26    1
     4     1    27    1
     5     2     3    1
     6     2     4    1
     7     2     5    1
     8     3    28    1
     9     3    29    1
    10     3    30    1
    11     4    31    1
    12     4    32    1
    13     4    33    1
    14     5     6    1
    15     5    34    1
    16     5    35    1
    17     6     7   am
    18     6    36    1
    19     7     8    2
    20     7     9    1
    21     9    10    1
    22     9    37    1
    23     9    38    1
    24    10    11    1
    25    11    12    2
    26    11    13    1
    27    13    24    1
    28    13    14    2
    29    14    15    1
    30    14    39    1
    31    15    16    1
    32    15    23    1
    33    16    22   ar
    34    16    17   ar
    35    17    18   ar
    36    17    40    1
    37    18    19   ar
    38    18    41    1
    39    19    20    1
    40    19    21   ar
    41    21    22   ar
    42    21    42    1
    43    22    43    1
    44    23    24    2
    45    23    44    1
@<TRIPOS>SUBSTRUCTURE
     1 ZINC000859608860        1 TEMP              0 ****  ****    0 ROOT


##########                                Name:    ZINC000864477301
##########                DOCK_Rotatable_Bonds:                   6
##########                         Heavy_Atoms:                  26
##########                    Molecular_Weight:             393.891
##########                DOCK_Rotatable_Bonds:                   6
##########                       Formal_Charge:         -0.00999978
##########                     HBond_Acceptors:                   7
##########                        HBond_Donors:                   1
##########                         Heavy_Atoms:                  26
##########                          Grid_Score:          -28.228016
##########                     Grid_vdw_energy:          -26.052116
##########                      Grid_es_energy:           -2.175900
##########           Internal_energy_repulsive:            8.357903

@<TRIPOS>MOLECULE
ZINC000864477301
 46 47 1 0 0
SMALL
USER_CHARGES


@<TRIPOS>ATOM
      1 C1         -1.4001    3.8910   44.9504 C.3     1  ZINC000864477301   -0.1500
      2 C2         -1.5242    2.9718   46.1671 C.3     1  ZINC000864477301    0.0600
      3 O3         -1.9572    1.6545   45.7364 O.3     1  ZINC000864477301   -0.3500
      4 C4         -1.6727    0.6203   46.5513 C.2     1  ZINC000864477301    0.5100
      5 O5         -1.6556   -0.5121   46.1121 O.2     1  ZINC000864477301   -0.5000
      6 C6         -1.3819    0.8632   47.9791 C.ar    1  ZINC000864477301   -0.1400
      7 C7         -0.0607    0.9046   48.4283 C.ar    1  ZINC000864477301   -0.0300
      8 C8          0.2038    1.1318   49.7633 C.ar    1  ZINC000864477301   -0.1500
      9 C9         -0.8366    1.3179   50.6559 C.ar    1  ZINC000864477301   -0.0100
     10 C10        -2.1486    1.2781   50.2173 C.ar    1  ZINC000864477301   -0.4900
     11 S11        -3.4659    1.5164   51.3630 S.o     1  ZINC000864477301    1.3800
     12 O12        -4.5607    0.8677   50.7306 O.2     1  ZINC000864477301   -0.8100
     13 C13        -3.7218    3.3118   51.3229 C.3     1  ZINC000864477301   -0.4600
     14 H14        -2.8360    3.8138   51.7119 H       1  ZINC000864477301    0.1400
     15 C15        -3.9698    3.7595   49.8811 C.3     1  ZINC000864477301   -0.1400
     16 C16        -4.9148    3.6683   52.1718 C.2     1  ZINC000864477301    0.5500
     17 O17        -5.2887    4.8202   52.2392 O.2     1  ZINC000864477301   -0.5100
     18 N18        -5.5661    2.7073   52.8563 N.am    1  ZINC000864477301   -0.6800
     19 C19        -6.6743    3.0384   53.6449 C.ar    1  ZINC000864477301    0.1400
     20 C20        -6.5015    3.3781   54.9797 C.ar    1  ZINC000864477301   -0.0600
     21 C21        -5.1202    3.3908   55.5820 C.3     1  ZINC000864477301   -0.1100
     22 C22        -7.5970    3.7050   55.7555 C.ar    1  ZINC000864477301   -0.1100
     23 C23        -8.8648    3.6943   55.2042 C.ar    1  ZINC000864477301   -0.1000
     24 C24        -9.0413    3.3560   53.8747 C.ar    1  ZINC000864477301   -0.1100
     25 C25        -7.9494    3.0336   53.0917 C.ar    1  ZINC000864477301   -0.0200
     26 Cl26       -8.1712    2.6096   51.4230 Cl      1  ZINC000864477301   -0.0600
     27 C27        -2.4271    1.0580   48.8846 C.ar    1  ZINC000864477301    0.0100
     28 H28        -0.6691    3.4775   44.2556 H       1  ZINC000864477301    0.0700
     29 H29        -2.3677    3.9706   44.4549 H       1  ZINC000864477301    0.0700
     30 H30        -1.0751    4.8799   45.2738 H       1  ZINC000864477301    0.0800
     31 H31        -0.5567    2.8922   46.6626 H       1  ZINC000864477301    0.0700
     32 H32        -2.2553    3.3853   46.8619 H       1  ZINC000864477301    0.0700
     33 H33         0.7524    0.7588   47.7327 H       1  ZINC000864477301    0.1400
     34 H34         1.2253    1.1641   50.1122 H       1  ZINC000864477301    0.1400
     35 H35        -0.6240    1.4947   51.6999 H       1  ZINC000864477301    0.1500
     36 H36        -4.1236    4.8384   49.8570 H       1  ZINC000864477301    0.0700
     37 H37        -3.1069    3.5017   49.2670 H       1  ZINC000864477301    0.0700
     38 H38        -4.8557    3.2576   49.4919 H       1  ZINC000864477301    0.0700
     39 H39        -5.2671    1.7861   52.8025 H       1  ZINC000864477301    0.4100
     40 H40        -4.6806    4.3810   55.4622 H       1  ZINC000864477301    0.0800
     41 H41        -5.1839    3.1475   56.6425 H       1  ZINC000864477301    0.0700
     42 H42        -4.4967    2.6530   55.0768 H       1  ZINC000864477301    0.0700
     43 H43        -7.4629    3.9689   56.7941 H       1  ZINC000864477301    0.1400
     44 H44        -9.7192    3.9502   55.8130 H       1  ZINC000864477301    0.1400
     45 H45       -10.0331    3.3482   53.4471 H       1  ZINC000864477301    0.1400
     46 H46        -3.4514    1.0275   48.5435 H       1  ZINC000864477301    0.1400
@<TRIPOS>BOND
     1     1     2    1
     2     1    28    1
     3     1    29    1
     4     1    30    1
     5     2     3    1
     6     2    31    1
     7     2    32    1
     8     3     4    1
     9     4     5    2
    10     4     6    1
    11     6    27   ar
    12     6     7   ar
    13     7     8   ar
    14     7    33    1
    15     8     9   ar
    16     8    34    1
    17     9    10   ar
    18     9    35    1
    19    10    11    1
    20    10    27   ar
    21    11    12    2
    22    11    13    1
    23    13    14    1
    24    13    15    1
    25    13    16    1
    26    15    36    1
    27    15    37    1
    28    15    38    1
    29    16    17    2
    30    16    18   am
    31    18    19    1
    32    18    39    1
    33    19    25   ar
    34    19    20   ar
    35    20    21    1
    36    20    22   ar
    37    21    40    1
    38    21    41    1
    39    21    42    1
    40    22    23   ar
    41    22    43    1
    42    23    24   ar
    43    23    44    1
    44    24    25   ar
    45    24    45    1
    46    25    26    1
    47    27    46    1
@<TRIPOS>SUBSTRUCTURE
     1 ZINC000864477301        1 TEMP              0 ****  ****    0 ROOT


##########                                Name:    ZINC001341052241
##########                DOCK_Rotatable_Bonds:                   7
##########                         Heavy_Atoms:                  24
##########                    Molecular_Weight:             336.478
##########                DOCK_Rotatable_Bonds:                   7
##########                       Formal_Charge:         5.96046e-08
##########                     HBond_Acceptors:                   6
##########                        HBond_Donors:                   0
##########                         Heavy_Atoms:                  24
##########                          Grid_Score:          -28.193518
##########                     Grid_vdw_energy:          -27.413889
##########                      Grid_es_energy:           -0.779630
##########           Internal_energy_repulsive:            5.845389

@<TRIPOS>MOLECULE
ZINC001341052241
 56 58 1 0 0
SMALL
USER_CHARGES


@<TRIPOS>ATOM
      1 C1         -7.0665    1.4197   51.4767 C.3     1  ZINC001341052241   -0.1700
      2 C2         -6.9305    2.1402   50.1338 C.3     1  ZINC001341052241    0.1100
      3 N3         -6.3016    3.4467   50.3422 N.pl3   1  ZINC001341052241   -0.4500
      4 C4         -6.9266    4.6255   50.6417 C.2     1  ZINC001341052241    0.1800
      5 C5         -8.4086    4.8297   50.8234 C.3     1  ZINC001341052241    0.1500
      6 O6         -8.9491    5.4579   49.6593 O.3     1  ZINC001341052241   -0.3700
      7 C7        -10.3559    5.6992   49.7292 C.3     1  ZINC001341052241    0.0900
      8 C8        -11.1115    4.4184   49.3693 C.3     1  ZINC001341052241   -0.1400
      9 C9        -12.6176    4.6768   49.4443 C.3     1  ZINC001341052241   -0.1200
     10 C10       -12.9946    5.7852   48.4593 C.3     1  ZINC001341052241   -0.1200
     11 C11       -12.2390    7.0659   48.8192 C.3     1  ZINC001341052241   -0.1200
     12 C12       -10.7328    6.8076   48.7443 C.3     1  ZINC001341052241   -0.1200
     13 N13        -6.0032    5.5393   50.7417 N.2     1  ZINC001341052241   -0.2600
     14 N14        -4.8457    5.0210   50.5330 N.2     1  ZINC001341052241   -0.3100
     15 C15        -4.9705    3.7400   50.2771 C.2     1  ZINC001341052241    0.3500
     16 N16        -3.9440    2.8517   49.9992 N.3     1  ZINC001341052241   -0.4600
     17 C17        -3.4476    3.0330   48.6290 C.3     1  ZINC001341052241    0.0700
     18 C18        -2.4202    1.9448   48.3091 C.3     1  ZINC001341052241   -0.1100
     19 C19        -1.2624    2.0336   49.3071 C.3     1  ZINC001341052241   -0.0900
     20 C20        -0.2615    0.9099   49.0303 C.3     1  ZINC001341052241    0.0700
     21 O21         0.3201    1.0975   47.7386 O.3     1  ZINC001341052241   -0.3900
     22 C22         1.3678    0.1750   47.4333 C.3     1  ZINC001341052241    0.0300
     23 C23        -1.8124    1.8901   50.7289 C.3     1  ZINC001341052241   -0.1100
     24 C24        -2.8574    2.9799   50.9787 C.3     1  ZINC001341052241    0.0700
     25 H25        -6.0798    1.2906   51.9213 H       1  ZINC001341052241    0.0600
     26 H26        -7.6916    2.0118   52.1451 H       1  ZINC001341052241    0.0700
     27 H27        -7.5252    0.4433   51.3203 H       1  ZINC001341052241    0.0800
     28 H28        -7.9183    2.2784   49.6941 H       1  ZINC001341052241    0.0900
     29 H29        -6.3140    1.5431   49.4619 H       1  ZINC001341052241    0.1000
     30 H30        -8.8926    3.8646   50.9733 H       1  ZINC001341052241    0.0900
     31 H31        -8.5841    5.4632   51.6929 H       1  ZINC001341052241    0.0700
     32 H32       -10.6220    6.0061   50.7408 H       1  ZINC001341052241    0.0600
     33 H33       -10.8454    4.1116   48.3579 H       1  ZINC001341052241    0.0700
     34 H34       -10.8430    3.6288   50.0711 H       1  ZINC001341052241    0.0700
     35 H35       -12.8838    4.9836   50.4558 H       1  ZINC001341052241    0.0600
     36 H36       -13.1560    3.7643   49.1879 H       1  ZINC001341052241    0.0700
     37 H37       -14.0677    5.9692   48.5126 H       1  ZINC001341052241    0.0600
     38 H38       -12.7284    5.4784   47.4478 H       1  ZINC001341052241    0.0600
     39 H39       -12.5051    7.3728   49.8307 H       1  ZINC001341052241    0.0600
     40 H40       -12.5075    7.8556   48.1175 H       1  ZINC001341052241    0.0700
     41 H41       -10.1944    7.7201   49.0007 H       1  ZINC001341052241    0.0700
     42 H42       -10.4667    6.5008   47.7327 H       1  ZINC001341052241    0.0700
     43 H43        -2.9787    4.0129   48.5393 H       1  ZINC001341052241    0.0600
     44 H44        -4.2802    2.9634   47.9290 H       1  ZINC001341052241    0.0800
     45 H45        -2.0406    2.0889   47.2976 H       1  ZINC001341052241    0.0800
     46 H46        -2.8920    0.9651   48.3852 H       1  ZINC001341052241    0.0800
     47 H47        -0.7652    2.9980   49.2034 H       1  ZINC001341052241    0.0800
     48 H48        -0.7760   -0.0506   49.0610 H       1  ZINC001341052241    0.0500
     49 H49         0.5222    0.9266   49.7876 H       1  ZINC001341052241    0.0500
     50 H50         2.1688    0.2797   48.1651 H       1  ZINC001341052241    0.0400
     51 H51         1.7566    0.3836   46.4366 H       1  ZINC001341052241    0.0900
     52 H52         0.9771   -0.8421   47.4654 H       1  ZINC001341052241    0.0400
     53 H53        -2.2746    0.9095   50.8431 H       1  ZINC001341052241    0.0700
     54 H54        -0.9984    1.9951   51.4462 H       1  ZINC001341052241    0.0800
     55 H55        -2.3913    3.9600   50.8780 H       1  ZINC001341052241    0.0600
     56 H56        -3.2613    2.8717   51.9854 H       1  ZINC001341052241    0.0800
@<TRIPOS>BOND
     1     1     2    1
     2     1    25    1
     3     1    26    1
     4     1    27    1
     5     2     3    1
     6     2    28    1
     7     2    29    1
     8     3    15    1
     9     3     4    1
    10     4     5    1
    11     4    13    2
    12     5     6    1
    13     5    30    1
    14     5    31    1
    15     6     7    1
    16     7    12    1
    17     7     8    1
    18     7    32    1
    19     8     9    1
    20     8    33    1
    21     8    34    1
    22     9    10    1
    23     9    35    1
    24     9    36    1
    25    10    11    1
    26    10    37    1
    27    10    38    1
    28    11    12    1
    29    11    39    1
    30    11    40    1
    31    12    41    1
    32    12    42    1
    33    13    14    1
    34    14    15    2
    35    15    16    1
    36    16    24    1
    37    16    17    1
    38    17    18    1
    39    17    43    1
    40    17    44    1
    41    18    19    1
    42    18    45    1
    43    18    46    1
    44    19    20    1
    45    19    23    1
    46    19    47    1
    47    20    21    1
    48    20    48    1
    49    20    49    1
    50    21    22    1
    51    22    50    1
    52    22    51    1
    53    22    52    1
    54    23    24    1
    55    23    53    1
    56    23    54    1
    57    24    55    1
    58    24    56    1
@<TRIPOS>SUBSTRUCTURE
     1 ZINC001341052241        1 TEMP              0 ****  ****    0 ROOT


##########                                Name:    ZINC001456607258
##########                DOCK_Rotatable_Bonds:                   9
##########                         Heavy_Atoms:                  25
##########                    Molecular_Weight:             339.437
##########                DOCK_Rotatable_Bonds:                   9
##########                       Formal_Charge:          -0.0200009
##########                     HBond_Acceptors:                   5
##########                        HBond_Donors:                   2
##########                         Heavy_Atoms:                  25
##########                          Grid_Score:          -28.183699
##########                     Grid_vdw_energy:          -27.526655
##########                      Grid_es_energy:           -0.657043
##########           Internal_energy_repulsive:           13.885832

@<TRIPOS>MOLECULE
ZINC001456607258
 50 52 1 0 0
SMALL
USER_CHARGES


@<TRIPOS>ATOM
      1 C1        -11.3162   -0.6739   61.0508 C.3     1  ZINC001456607258   -0.1600
      2 C2        -11.1099   -0.8135   59.5411 C.3     1  ZINC001456607258   -0.1100
      3 C3        -11.3248   -2.2714   59.1298 C.3     1  ZINC001456607258   -0.1000
      4 H4        -10.9650   -2.9290   59.9211 H       1  ZINC001456607258    0.0900
      5 C5        -10.5531   -2.5564   57.8397 C.3     1  ZINC001456607258   -0.0700
      6 C6         -9.1523   -2.9962   58.1791 C.ar    1  ZINC001456607258   -0.0800
      7 C7         -8.8794   -4.3354   58.3865 C.ar    1  ZINC001456607258   -0.1200
      8 C8         -7.5945   -4.7389   58.6979 C.ar    1  ZINC001456607258   -0.1200
      9 C9         -6.5822   -3.8032   58.8015 C.ar    1  ZINC001456607258   -0.1200
     10 C10        -6.8548   -2.4641   58.5932 C.ar    1  ZINC001456607258   -0.1200
     11 C11        -8.1389   -2.0612   58.2776 C.ar    1  ZINC001456607258   -0.1200
     12 C12       -12.7939   -2.5176   58.9011 C.2     1  ZINC001456607258    0.5200
     13 O13       -13.4606   -3.0511   59.7623 O.2     1  ZINC001456607258   -0.5300
     14 N14       -13.3668   -2.1447   57.7395 N.am    1  ZINC001456607258   -0.7300
     15 C15       -14.7949   -2.3839   57.5172 C.3     1  ZINC001456607258    0.1300
     16 C16       -15.0614   -2.5220   56.0170 C.3     1  ZINC001456607258   -0.1400
     17 C17       -16.5188   -2.2293   55.6168 C.3     1  ZINC001456607258    0.1100
     18 N18       -15.9507   -1.4962   54.4688 N.am    1  ZINC001456607258   -0.6500
     19 C19       -16.4012   -1.1671   53.2418 C.2     1  ZINC001456607258    0.6100
     20 O20       -17.5191   -1.4982   52.8954 O.2     1  ZINC001456607258   -0.5400
     21 C21       -15.5397   -0.4067   52.3207 C.2     1  ZINC001456607258   -0.2300
     22 C22       -14.3629    0.2205   52.6249 C.2     1  ZINC001456607258    0.0400
     23 N23       -13.8888    0.8002   51.5058 N.pl3   1  ZINC001456607258   -0.5500
     24 C24       -14.7327    0.5689   50.4588 C.2     1  ZINC001456607258   -0.0200
     25 C25       -15.7671   -0.1743   50.8904 C.2     1  ZINC001456607258   -0.1400
     26 C26       -14.6915   -1.2683   55.2038 C.3     1  ZINC001456607258    0.1100
     27 H27       -11.0743    0.3437   61.3579 H       1  ZINC001456607258    0.0600
     28 H28       -12.3558   -0.8903   61.2970 H       1  ZINC001456607258    0.0600
     29 H29       -10.6655   -1.3752   61.5728 H       1  ZINC001456607258    0.0600
     30 H30       -11.8243   -0.1789   59.0166 H       1  ZINC001456607258    0.0800
     31 H31       -10.0956   -0.5089   59.2833 H       1  ZINC001456607258    0.0700
     32 H32       -11.0567   -3.3459   57.2820 H       1  ZINC001456607258    0.0800
     33 H33       -10.5128   -1.6517   57.2330 H       1  ZINC001456607258    0.0900
     34 H34        -9.6703   -5.0665   58.3056 H       1  ZINC001456607258    0.1200
     35 H35        -7.3815   -5.7851   58.8606 H       1  ZINC001456607258    0.1200
     36 H36        -5.5785   -4.1183   59.0455 H       1  ZINC001456607258    0.1200
     37 H37        -6.0641   -1.7331   58.6745 H       1  ZINC001456607258    0.1200
     38 H38        -8.3519   -1.0149   58.1148 H       1  ZINC001456607258    0.1200
     39 H39       -12.8335   -1.7179   57.0508 H       1  ZINC001456607258    0.4000
     40 H40       -15.0930   -3.3012   58.0251 H       1  ZINC001456607258    0.0700
     41 H41       -15.3696   -1.5465   57.9128 H       1  ZINC001456607258    0.0800
     42 H42       -14.6672   -3.4483   55.5989 H       1  ZINC001456607258    0.1100
     43 H43       -17.0838   -3.1177   55.3346 H       1  ZINC001456607258    0.0800
     44 H44       -17.0496   -1.5932   56.3251 H       1  ZINC001456607258    0.0900
     45 H45       -13.8938    0.2465   53.5973 H       1  ZINC001456607258    0.1700
     46 H46       -13.0652    1.3098   51.4518 H       1  ZINC001456607258    0.4200
     47 H47       -14.5905    0.9206   49.4477 H       1  ZINC001456607258    0.1700
     48 H48       -16.6030   -0.5238   50.3025 H       1  ZINC001456607258    0.1500
     49 H49       -14.6856   -0.3498   55.7909 H       1  ZINC001456607258    0.0900
     50 H50       -13.7976   -1.3894   54.5919 H       1  ZINC001456607258    0.0900
@<TRIPOS>BOND
     1     1     2    1
     2     1    27    1
     3     1    28    1
     4     1    29    1
     5     2     3    1
     6     2    30    1
     7     2    31    1
     8     3     4    1
     9     3     5    1
    10     3    12    1
    11     5     6    1
    12     5    32    1
    13     5    33    1
    14     6    11   ar
    15     6     7   ar
    16     7     8   ar
    17     7    34    1
    18     8     9   ar
    19     8    35    1
    20     9    10   ar
    21     9    36    1
    22    10    11   ar
    23    10    37    1
    24    11    38    1
    25    12    13    2
    26    12    14   am
    27    14    15    1
    28    14    39    1
    29    15    16    1
    30    15    40    1
    31    15    41    1
    32    16    26    1
    33    16    17    1
    34    16    42    1
    35    17    18    1
    36    17    43    1
    37    17    44    1
    38    18    19   am
    39    18    26    1
    40    19    20    2
    41    19    21    1
    42    21    25    1
    43    21    22    2
    44    22    23    1
    45    22    45    1
    46    23    24    1
    47    23    46    1
    48    24    25    2
    49    24    47    1
    50    25    48    1
    51    26    49    1
    52    26    50    1
@<TRIPOS>SUBSTRUCTURE
     1 ZINC001456607258        1 TEMP              0 ****  ****    0 ROOT


##########                                Name:    ZINC000053543817
##########                DOCK_Rotatable_Bonds:                   7
##########                         Heavy_Atoms:                  25
##########                    Molecular_Weight:             350.458
##########                DOCK_Rotatable_Bonds:                   7
##########                       Formal_Charge:           0.0199998
##########                     HBond_Acceptors:                   6
##########                        HBond_Donors:                   2
##########                         Heavy_Atoms:                  25
##########                          Grid_Score:          -28.180353
##########                     Grid_vdw_energy:          -27.492661
##########                      Grid_es_energy:           -0.687693
##########           Internal_energy_repulsive:           25.009527

@<TRIPOS>MOLECULE
ZINC000053543817
 55 56 1 0 0
SMALL
USER_CHARGES


@<TRIPOS>ATOM
      1 C1          1.7742    1.9632   52.3899 C.3     1  ZINC000053543817   -0.0700
      2 C2          0.8637    1.8554   51.1937 C.2     1  ZINC000053543817   -0.0200
      3 C3         -0.4531    2.1418   51.1781 C.2     1  ZINC000053543817   -0.1800
      4 C4         -0.9016    1.9026   49.8666 C.2     1  ZINC000053543817   -0.1900
      5 C5          0.1631    1.4845   49.1519 C.2     1  ZINC000053543817    0.0000
      6 C6          0.1044    1.1218   47.6880 C.3     1  ZINC000053543817   -0.0300
      7 C7         -1.1887    1.6967   47.0976 C.3     1  ZINC000053543817   -0.0500
      8 C8         -1.0851    3.2219   47.0321 C.3     1  ZINC000053543817   -0.1500
      9 C9         -1.3976    1.1390   45.6882 C.3     1  ZINC000053543817   -0.1400
     10 C10        -2.3749    1.3035   47.9824 C.3     1  ZINC000053543817   -0.1200
     11 C11        -2.2930    2.0640   49.3123 C.3     1  ZINC000053543817    0.2200
     12 H12        -2.5014    3.1205   49.1444 H       1  ZINC000053543817    0.1000
     13 N13        -3.2679    1.5128   50.2567 N.am    1  ZINC000053543817   -0.7100
     14 C14        -4.5869    1.6885   50.0430 C.2     1  ZINC000053543817    0.5100
     15 O15        -4.9668    2.3041   49.0696 O.2     1  ZINC000053543817   -0.5300
     16 C16        -5.5898    1.1199   51.0136 C.3     1  ZINC000053543817    0.1400
     17 H17        -5.3646    0.0690   51.1949 H       1  ZINC000053543817    0.1200
     18 C18        -6.9966    1.2460   50.4257 C.3     1  ZINC000053543817   -0.1600
     19 N19        -5.5202    1.8592   52.2766 N.am    1  ZINC000053543817   -0.7000
     20 C20        -5.6748    3.1981   52.2831 C.2     1  ZINC000053543817    0.6600
     21 O21        -5.8703    3.7922   51.2414 O.2     1  ZINC000053543817   -0.5700
     22 O22        -5.6125    3.8772   53.4439 O.3     1  ZINC000053543817   -0.3600
     23 C23        -4.3076    3.9941   54.0700 C.3     1  ZINC000053543817    0.1400
     24 C24        -4.2784    5.2387   54.9594 C.3     1  ZINC000053543817   -0.1800
     25 C25        -4.0374    2.7521   54.9216 C.3     1  ZINC000053543817   -0.1400
     26 C26        -3.2320    4.1148   52.9885 C.3     1  ZINC000053543817   -0.1800
     27 O27         1.2295    1.4626   49.9603 O.3     1  ZINC000053543817   -0.1700
     28 H28         2.7851    1.6719   52.1044 H       1  ZINC000053543817    0.0800
     29 H29         1.7806    2.9919   52.7501 H       1  ZINC000053543817    0.0800
     30 H30         1.4155    1.3036   53.1801 H       1  ZINC000053543817    0.0800
     31 H31        -1.0481    2.4872   52.0105 H       1  ZINC000053543817    0.1400
     32 H32         0.9643    1.5470   47.1704 H       1  ZINC000053543817    0.0900
     33 H33         0.1066    0.0373   47.5788 H       1  ZINC000053543817    0.0900
     34 H34        -0.2416    3.5019   46.4012 H       1  ZINC000053543817    0.0600
     35 H35        -2.0043    3.6307   46.6125 H       1  ZINC000053543817    0.0600
     36 H36        -0.9358    3.6192   48.0360 H       1  ZINC000053543817    0.0600
     37 H37        -1.4708    0.0525   45.7346 H       1  ZINC000053543817    0.0600
     38 H38        -2.3167    1.5476   45.2683 H       1  ZINC000053543817    0.0600
     39 H39        -0.5539    1.4198   45.0577 H       1  ZINC000053543817    0.0600
     40 H40        -3.3061    1.5568   47.4757 H       1  ZINC000053543817    0.0800
     41 H41        -2.3453    0.2310   48.1743 H       1  ZINC000053543817    0.0700
     42 H42        -2.9640    1.0214   51.0359 H       1  ZINC000053543817    0.4000
     43 H43        -7.0484    0.6961   49.4861 H       1  ZINC000053543817    0.0800
     44 H44        -7.7221    0.8349   51.1278 H       1  ZINC000053543817    0.0800
     45 H45        -7.2218    2.2970   50.2445 H       1  ZINC000053543817    0.0700
     46 H46        -5.3630    1.3851   53.1080 H       1  ZINC000053543817    0.4200
     47 H47        -5.0446    5.1527   55.7299 H       1  ZINC000053543817    0.0600
     48 H48        -3.2988    5.3266   55.4294 H       1  ZINC000053543817    0.0700
     49 H49        -4.4709    6.1235   54.3526 H       1  ZINC000053543817    0.0900
     50 H50        -4.0582    1.8655   54.2880 H       1  ZINC000053543817    0.0700
     51 H51        -3.0578    2.8400   55.3917 H       1  ZINC000053543817    0.0800
     52 H52        -4.8036    2.6662   55.6921 H       1  ZINC000053543817    0.0700
     53 H53        -3.4246    4.9995   52.3817 H       1  ZINC000053543817    0.0900
     54 H54        -2.2525    4.2026   53.4584 H       1  ZINC000053543817    0.0700
     55 H55        -3.2529    3.2281   52.3549 H       1  ZINC000053543817    0.0600
@<TRIPOS>BOND
     1     1     2    1
     2     1    28    1
     3     1    29    1
     4     1    30    1
     5     2    27    1
     6     2     3    2
     7     3     4    1
     8     3    31    1
     9     4    11    1
    10     4     5    2
    11     5     6    1
    12     5    27    1
    13     6     7    1
    14     6    32    1
    15     6    33    1
    16     7     8    1
    17     7     9    1
    18     7    10    1
    19     8    34    1
    20     8    35    1
    21     8    36    1
    22     9    37    1
    23     9    38    1
    24     9    39    1
    25    10    11    1
    26    10    40    1
    27    10    41    1
    28    11    12    1
    29    11    13    1
    30    13    14   am
    31    13    42    1
    32    14    15    2
    33    14    16    1
    34    16    17    1
    35    16    18    1
    36    16    19    1
    37    18    43    1
    38    18    44    1
    39    18    45    1
    40    19    20   am
    41    19    46    1
    42    20    21    2
    43    20    22    1
    44    22    23    1
    45    23    24    1
    46    23    25    1
    47    23    26    1
    48    24    47    1
    49    24    48    1
    50    24    49    1
    51    25    50    1
    52    25    51    1
    53    25    52    1
    54    26    53    1
    55    26    54    1
    56    26    55    1
@<TRIPOS>SUBSTRUCTURE
     1 ZINC000053543817        1 TEMP              0 ****  ****    0 ROOT


##########                                Name:    ZINC000482910431
##########                DOCK_Rotatable_Bonds:                   7
##########                         Heavy_Atoms:                  29
##########                    Molecular_Weight:             414.867
##########                DOCK_Rotatable_Bonds:                   7
##########                       Formal_Charge:          -0.0300001
##########                     HBond_Acceptors:                   8
##########                        HBond_Donors:                   2
##########                         Heavy_Atoms:                  29
##########                          Grid_Score:          -28.179169
##########                     Grid_vdw_energy:          -26.502558
##########                      Grid_es_energy:           -1.676610
##########           Internal_energy_repulsive:           16.118450

@<TRIPOS>MOLECULE
ZINC000482910431
 49 51 1 0 0
SMALL
USER_CHARGES


@<TRIPOS>ATOM
      1 C1        -11.9381    5.1619   48.5863 C.3     1  ZINC000482910431   -0.1500
      2 C2        -10.5936    5.6899   49.0907 C.3     1  ZINC000482910431    0.0800
      3 C3         -9.4629    5.0880   48.2538 C.3     1  ZINC000482910431   -0.1400
      4 C4        -10.5660    7.1566   48.9701 C.1     1  ZINC000482910431    0.2100
      5 N5        -10.5447    8.2886   48.8769 N.1     1  ZINC000482910431   -0.4300
      6 C6        -10.4111    5.3012   50.5351 C.ar    1  ZINC000482910431   -0.1000
      7 C7        -10.6651    4.0029   50.9376 C.ar    1  ZINC000482910431   -0.0900
      8 C8        -10.4984    3.6432   52.2606 C.ar    1  ZINC000482910431   -0.1200
      9 C9        -10.0751    4.5871   53.1871 C.ar    1  ZINC000482910431    0.1700
     10 N10        -9.9047    4.2258   54.5284 N.am    1  ZINC000482910431   -0.6800
     11 C11        -8.9114    3.3852   54.8788 C.2     1  ZINC000482910431    0.7100
     12 O12        -8.1632    2.9406   54.0297 O.2     1  ZINC000482910431   -0.5500
     13 N13        -8.7472    3.0372   56.1706 N.am    1  ZINC000482910431   -0.7300
     14 C14        -7.6685    2.1221   56.5513 C.3     1  ZINC000482910431    0.1400
     15 H15        -6.7847    2.2998   55.9387 H       1  ZINC000482910431    0.1400
     16 C16        -7.3283    2.2808   58.0513 C.3     1  ZINC000482910431   -0.1400
     17 C17        -7.0115    0.8246   58.4583 C.3     1  ZINC000482910431    0.0900
     18 N18        -7.7476   -0.0166   57.5073 N.am    1  ZINC000482910431   -0.5600
     19 C19        -8.0225   -1.3750   57.7030 C.ar    1  ZINC000482910431    0.2000
     20 C20        -9.2616   -1.8916   57.3485 C.ar    1  ZINC000482910431   -0.1600
     21 C21        -9.5318   -3.2326   57.5422 C.ar    1  ZINC000482910431   -0.0500
     22 C22        -8.5692   -4.0617   58.0890 C.ar    1  ZINC000482910431   -0.1000
     23 Cl23       -8.9123   -5.7463   58.3308 Cl      1  ZINC000482910431   -0.0500
     24 C24        -7.3308   -3.5497   58.4436 C.ar    1  ZINC000482910431    0.1400
     25 F25        -6.3919   -4.3615   58.9770 F       1  ZINC000482910431   -0.1200
     26 C26        -7.0545   -2.2090   58.2465 C.ar    1  ZINC000482910431   -0.1900
     27 C27        -8.1227    0.6849   56.4209 C.2     1  ZINC000482910431    0.5000
     28 O28        -8.7376    0.2310   55.4791 O.2     1  ZINC000482910431   -0.4800
     29 C29        -9.8209    5.8901   52.7798 C.ar    1  ZINC000482910431   -0.1400
     30 C30        -9.9844    6.2420   51.4543 C.ar    1  ZINC000482910431   -0.0900
     31 H31       -11.9585    4.0757   48.6757 H       1  ZINC000482910431    0.0800
     32 H32       -12.7436    5.5907   49.1826 H       1  ZINC000482910431    0.0700
     33 H33       -12.0701    5.4431   47.5415 H       1  ZINC000482910431    0.0700
     34 H34        -9.5950    5.3692   47.2090 H       1  ZINC000482910431    0.0700
     35 H35        -8.5051    5.4641   48.6131 H       1  ZINC000482910431    0.0700
     36 H36        -9.4834    4.0019   48.3431 H       1  ZINC000482910431    0.0800
     37 H37       -10.9946    3.2693   50.2166 H       1  ZINC000482910431    0.1400
     38 H38       -10.6973    2.6291   52.5744 H       1  ZINC000482910431    0.1400
     39 H39       -10.5017    4.5805   55.2057 H       1  ZINC000482910431    0.4100
     40 H40        -9.3434    3.3928   56.8480 H       1  ZINC000482910431    0.4000
     41 H41        -6.4577    2.9223   58.1880 H       1  ZINC000482910431    0.1100
     42 H42        -8.1842    2.6637   58.6071 H       1  ZINC000482910431    0.1000
     43 H43        -5.9410    0.6353   58.3792 H       1  ZINC000482910431    0.0900
     44 H44        -7.3550    0.6339   59.4750 H       1  ZINC000482910431    0.1000
     45 H45       -10.0143   -1.2452   56.9219 H       1  ZINC000482910431    0.1700
     46 H46       -10.4959   -3.6338   57.2667 H       1  ZINC000482910431    0.1500
     47 H47        -6.0897   -1.8096   58.5223 H       1  ZINC000482910431    0.1500
     48 H48        -9.4916    6.6264   53.4980 H       1  ZINC000482910431    0.1300
     49 H49        -9.7865    7.2552   51.1368 H       1  ZINC000482910431    0.1300
@<TRIPOS>BOND
     1     1     2    1
     2     1    31    1
     3     1    32    1
     4     1    33    1
     5     2     3    1
     6     2     4    1
     7     2     6    1
     8     3    34    1
     9     3    35    1
    10     3    36    1
    11     4     5    3
    12     6    30   ar
    13     6     7   ar
    14     7     8   ar
    15     7    37    1
    16     8     9   ar
    17     8    38    1
    18     9    10    1
    19     9    29   ar
    20    10    11   am
    21    10    39    1
    22    11    12    2
    23    11    13   am
    24    13    14    1
    25    13    40    1
    26    14    15    1
    27    14    27    1
    28    14    16    1
    29    16    17    1
    30    16    41    1
    31    16    42    1
    32    17    18    1
    33    17    43    1
    34    17    44    1
    35    18    19    1
    36    18    27   am
    37    19    26   ar
    38    19    20   ar
    39    20    21   ar
    40    20    45    1
    41    21    22   ar
    42    21    46    1
    43    22    23    1
    44    22    24   ar
    45    24    25    1
    46    24    26   ar
    47    26    47    1
    48    27    28    2
    49    29    30   ar
    50    29    48    1
    51    30    49    1
@<TRIPOS>SUBSTRUCTURE
     1 ZINC000482910431        1 TEMP              0 ****  ****    0 ROOT


##########                                Name:    ZINC000518234532
##########                DOCK_Rotatable_Bonds:                   5
##########                         Heavy_Atoms:                  25
##########                    Molecular_Weight:             408.267
##########                DOCK_Rotatable_Bonds:                   5
##########                       Formal_Charge:         -0.00999981
##########                     HBond_Acceptors:                   5
##########                        HBond_Donors:                   1
##########                         Heavy_Atoms:                  25
##########                          Grid_Score:          -28.170084
##########                     Grid_vdw_energy:          -28.651525
##########                      Grid_es_energy:            0.481442
##########           Internal_energy_repulsive:           17.136101

@<TRIPOS>MOLECULE
ZINC000518234532
 44 46 1 0 0
SMALL
USER_CHARGES


@<TRIPOS>ATOM
      1 C1         -1.6687    4.7123   50.9551 C.3     1  ZINC000518234532   -0.1600
      2 C2         -2.1434    3.2602   51.0394 C.3     1  ZINC000518234532    0.1800
      3 H3         -1.6798    2.7757   51.8988 H       1  ZINC000518234532    0.1100
      4 N4         -3.6004    3.2307   51.1894 N.am    1  ZINC000518234532   -0.7300
      5 C5         -4.2282    2.0654   51.4437 C.2     1  ZINC000518234532    0.5200
      6 O6         -3.5867    1.0416   51.5498 O.2     1  ZINC000518234532   -0.5200
      7 C7         -5.7271    2.0347   51.5961 C.3     1  ZINC000518234532   -0.0700
      8 H8         -6.1262    1.1569   51.0877 H       1  ZINC000518234532    0.1100
      9 C9         -6.3285    3.2989   50.9790 C.3     1  ZINC000518234532   -0.1400
     10 C10        -6.0820    1.9723   53.0593 C.ar    1  ZINC000518234532   -0.1000
     11 C11        -5.1521    2.3413   54.0125 C.ar    1  ZINC000518234532   -0.0600
     12 C12        -5.4775    2.2841   55.3551 C.ar    1  ZINC000518234532   -0.1300
     13 C13        -6.7329    1.8574   55.7456 C.ar    1  ZINC000518234532   -0.0900
     14 C14        -7.6646    1.4873   54.7940 C.ar    1  ZINC000518234532   -0.1600
     15 C15        -7.3421    1.5505   53.4492 C.ar    1  ZINC000518234532    0.1000
     16 F16        -8.2520    1.1891   52.5182 F       1  ZINC000518234532   -0.1400
     17 C17        -1.7532    2.5302   49.7801 C.ar    1  ZINC000518234532   -0.0600
     18 C18        -2.5948    2.5467   48.6842 C.ar    1  ZINC000518234532   -0.1100
     19 C19        -2.2380    1.8764   47.5235 C.ar    1  ZINC000518234532    0.0800
     20 C20        -1.0310    1.1901   47.4646 C.ar    1  ZINC000518234532    0.0600
     21 C21        -0.1909    1.1760   48.5681 C.ar    1  ZINC000518234532   -0.0800
     22 C22        -0.5504    1.8494   49.7210 C.ar    1  ZINC000518234532   -0.0800
     23 Br23        0.5978    1.8292   51.2233 Br      1  ZINC000518234532   -0.0300
     24 O24        -0.6583    0.5324   46.3328 O.3     1  ZINC000518234532   -0.3000
     25 C25        -1.6899    0.2572   45.3789 C.3     1  ZINC000518234532    0.0200
     26 C26        -2.5205    1.5334   45.1875 C.3     1  ZINC000518234532    0.0200
     27 O27        -3.0797    1.8985   46.4538 O.3     1  ZINC000518234532   -0.3000
     28 H28        -1.9509    5.2403   51.8659 H       1  ZINC000518234532    0.0700
     29 H29        -0.5847    4.7342   50.8434 H       1  ZINC000518234532    0.0700
     30 H30        -2.1323    5.1968   50.0957 H       1  ZINC000518234532    0.0600
     31 H31        -4.1133    4.0497   51.1057 H       1  ZINC000518234532    0.4000
     32 H32        -6.0719    3.3441   49.9205 H       1  ZINC000518234532    0.0700
     33 H33        -7.4127    3.2768   51.0893 H       1  ZINC000518234532    0.0700
     34 H34        -5.9295    4.1767   51.4873 H       1  ZINC000518234532    0.0700
     35 H35        -4.1706    2.6742   53.7086 H       1  ZINC000518234532    0.1300
     36 H36        -4.7500    2.5727   56.0993 H       1  ZINC000518234532    0.1300
     37 H37        -6.9858    1.8128   56.7946 H       1  ZINC000518234532    0.1300
     38 H38        -8.6452    1.1533   55.0993 H       1  ZINC000518234532    0.1400
     39 H39        -3.5317    3.0819   48.7316 H       1  ZINC000518234532    0.1400
     40 H40         0.7467    0.6416   48.5256 H       1  ZINC000518234532    0.1500
     41 H41        -1.2433   -0.0368   44.4290 H       1  ZINC000518234532    0.1300
     42 H42        -2.3284   -0.5448   45.7493 H       1  ZINC000518234532    0.0800
     43 H43        -1.8807    2.3371   44.8228 H       1  ZINC000518234532    0.0800
     44 H44        -3.3212    1.3470   44.4719 H       1  ZINC000518234532    0.1300
@<TRIPOS>BOND
     1     1     2    1
     2     1    28    1
     3     1    29    1
     4     1    30    1
     5     2     3    1
     6     2     4    1
     7     2    17    1
     8     4     5   am
     9     4    31    1
    10     5     6    2
    11     5     7    1
    12     7     8    1
    13     7     9    1
    14     7    10    1
    15     9    32    1
    16     9    33    1
    17     9    34    1
    18    10    15   ar
    19    10    11   ar
    20    11    12   ar
    21    11    35    1
    22    12    13   ar
    23    12    36    1
    24    13    14   ar
    25    13    37    1
    26    14    15   ar
    27    14    38    1
    28    15    16    1
    29    17    22   ar
    30    17    18   ar
    31    18    19   ar
    32    18    39    1
    33    19    27    1
    34    19    20   ar
    35    20    21   ar
    36    20    24    1
    37    21    22   ar
    38    21    40    1
    39    22    23    1
    40    24    25    1
    41    25    26    1
    42    25    41    1
    43    25    42    1
    44    26    27    1
    45    26    43    1
    46    26    44    1
@<TRIPOS>SUBSTRUCTURE
     1 ZINC000518234532        1 TEMP              0 ****  ****    0 ROOT


##########                                Name:    ZINC000464752079
##########                DOCK_Rotatable_Bonds:                   7
##########                         Heavy_Atoms:                  29
##########                    Molecular_Weight:             404.413
##########                DOCK_Rotatable_Bonds:                   7
##########                       Formal_Charge:         7.45058e-08
##########                     HBond_Acceptors:                   8
##########                        HBond_Donors:                   1
##########                         Heavy_Atoms:                  29
##########                          Grid_Score:          -28.095032
##########                     Grid_vdw_energy:          -27.209881
##########                      Grid_es_energy:           -0.885150
##########           Internal_energy_repulsive:           17.818617

@<TRIPOS>MOLECULE
ZINC000464752079
 51 54 1 0 0
SMALL
USER_CHARGES


@<TRIPOS>ATOM
      1 C1         -6.0427    5.9910   51.7543 C.3     1  ZINC000464752079   -0.1200
      2 C2         -5.3987    5.0395   52.7296 C.ar    1  ZINC000464752079   -0.0800
      3 C3         -4.4280    5.4956   53.6013 C.ar    1  ZINC000464752079   -0.1200
      4 C4         -3.8371    4.6226   54.4961 C.ar    1  ZINC000464752079   -0.1200
      5 C5         -4.2174    3.2941   54.5189 C.ar    1  ZINC000464752079   -0.1300
      6 C6         -5.1891    2.8381   53.6475 C.ar    1  ZINC000464752079   -0.0900
      7 C7         -5.7829    3.7116   52.7560 C.ar    1  ZINC000464752079   -0.0800
      8 C8         -6.8419    3.2145   51.8061 C.3     1  ZINC000464752079    0.2000
      9 H9         -7.5634    4.0073   51.6079 H       1  ZINC000464752079    0.0900
     10 C10        -6.1889    2.7567   50.4849 C.3     1  ZINC000464752079   -0.1200
     11 C11        -7.0138    1.4979   50.1075 C.3     1  ZINC000464752079   -0.1300
     12 C12        -7.3036    0.8867   51.5011 C.3     1  ZINC000464752079    0.1000
     13 N13        -7.5261    2.0492   52.3854 N.am    1  ZINC000464752079   -0.6300
     14 C14        -8.2346    2.0399   53.5318 C.2     1  ZINC000464752079    0.7200
     15 O15        -8.3531    3.0607   54.1816 O.2     1  ZINC000464752079   -0.5700
     16 N16        -8.8117    0.8990   53.9581 N.am    1  ZINC000464752079   -0.7400
     17 C17        -9.5834    0.8893   55.2033 C.3     1  ZINC000464752079    0.1900
     18 C18        -9.1810   -0.3019   56.0343 C.ar    1  ZINC000464752079   -0.1200
     19 C19        -8.0993   -0.2126   56.8901 C.ar    1  ZINC000464752079   -0.0500
     20 C20        -7.7266   -1.3058   57.6550 C.ar    1  ZINC000464752079    0.0100
     21 C21        -8.4434   -2.4960   57.5612 C.ar    1  ZINC000464752079    0.0800
     22 C22        -9.5279   -2.5827   56.7036 C.ar    1  ZINC000464752079   -0.1800
     23 C23        -9.8999   -1.4845   55.9435 C.ar    1  ZINC000464752079    0.1400
     24 O24       -10.9646   -1.5696   55.1019 O.3     1  ZINC000464752079   -0.3100
     25 C25       -12.2629   -1.5916   55.6985 C.3     1  ZINC000464752079    0.4100
     26 F26       -12.4621   -2.8206   56.3366 F       1  ZINC000464752079   -0.2000
     27 F27       -12.3632   -0.5579   56.6357 F       1  ZINC000464752079   -0.2000
     28 O28        -7.8834   -3.4104   58.4059 O.3     1  ZINC000464752079   -0.3000
     29 C29        -6.5726   -2.8994   58.7120 C.3     1  ZINC000464752079    0.2100
     30 O30        -6.7167   -1.4749   58.5592 O.3     1  ZINC000464752079   -0.3000
     31 H31        -6.9212    6.4434   52.2144 H       1  ZINC000464752079    0.0700
     32 H32        -5.3313    6.7715   51.4845 H       1  ZINC000464752079    0.0700
     33 H33        -6.3415    5.4462   50.8587 H       1  ZINC000464752079    0.0700
     34 H34        -4.1309    6.5337   53.5835 H       1  ZINC000464752079    0.1200
     35 H35        -3.0781    4.9789   55.1767 H       1  ZINC000464752079    0.1200
     36 H36        -3.7554    2.6120   55.2173 H       1  ZINC000464752079    0.1200
     37 H37        -5.4860    1.7999   53.6651 H       1  ZINC000464752079    0.1100
     38 H38        -6.2873    3.5262   49.7191 H       1  ZINC000464752079    0.0900
     39 H39        -5.1416    2.4988   50.6415 H       1  ZINC000464752079    0.0800
     40 H40        -7.9391    1.7743   49.6020 H       1  ZINC000464752079    0.0800
     41 H41        -6.4253    0.8142   49.4957 H       1  ZINC000464752079    0.0900
     42 H42        -8.1973    0.2638   51.4636 H       1  ZINC000464752079    0.0700
     43 H43        -6.4487    0.3048   51.8453 H       1  ZINC000464752079    0.0700
     44 H44        -8.7162    0.0843   53.4402 H       1  ZINC000464752079    0.4000
     45 H45        -9.3851    1.8048   55.7607 H       1  ZINC000464752079    0.0800
     46 H46       -10.6466    0.8280   54.9714 H       1  ZINC000464752079    0.0800
     47 H47        -7.5437    0.7107   56.9624 H       1  ZINC000464752079    0.1500
     48 H48       -10.0853   -3.5048   56.6294 H       1  ZINC000464752079    0.1500
     49 H49       -13.0200   -1.4564   54.9261 H       1  ZINC000464752079    0.1900
     50 H50        -6.2938   -3.1485   59.7358 H       1  ZINC000464752079    0.1400
     51 H51        -5.8362   -3.2876   58.0082 H       1  ZINC000464752079    0.0900
@<TRIPOS>BOND
     1     1     2    1
     2     1    31    1
     3     1    32    1
     4     1    33    1
     5     2     7   ar
     6     2     3   ar
     7     3     4   ar
     8     3    34    1
     9     4     5   ar
    10     4    35    1
    11     5     6   ar
    12     5    36    1
    13     6     7   ar
    14     6    37    1
    15     7     8    1
    16     8     9    1
    17     8    13    1
    18     8    10    1
    19    10    11    1
    20    10    38    1
    21    10    39    1
    22    11    12    1
    23    11    40    1
    24    11    41    1
    25    12    13    1
    26    12    42    1
    27    12    43    1
    28    13    14   am
    29    14    15    2
    30    14    16   am
    31    16    17    1
    32    16    44    1
    33    17    18    1
    34    17    45    1
    35    17    46    1
    36    18    23   ar
    37    18    19   ar
    38    19    20   ar
    39    19    47    1
    40    20    30    1
    41    20    21   ar
    42    21    22   ar
    43    21    28    1
    44    22    23   ar
    45    22    48    1
    46    23    24    1
    47    24    25    1
    48    25    26    1
    49    25    27    1
    50    25    49    1
    51    28    29    1
    52    29    30    1
    53    29    50    1
    54    29    51    1
@<TRIPOS>SUBSTRUCTURE
     1 ZINC000464752079        1 TEMP              0 ****  ****    0 ROOT


##########                                Name:    ZINC000616491533
##########                DOCK_Rotatable_Bonds:                   4
##########                         Heavy_Atoms:                  27
##########                    Molecular_Weight:             375.418
##########                DOCK_Rotatable_Bonds:                   4
##########                       Formal_Charge:           0.0299996
##########                     HBond_Acceptors:                   7
##########                        HBond_Donors:                   0
##########                         Heavy_Atoms:                  27
##########                          Grid_Score:          -28.090317
##########                     Grid_vdw_energy:          -25.545231
##########                      Grid_es_energy:           -2.545086
##########           Internal_energy_repulsive:           11.943203

@<TRIPOS>MOLECULE
ZINC000616491533
 50 53 1 0 0
SMALL
USER_CHARGES


@<TRIPOS>ATOM
      1 C1        -11.8139    3.3245   63.8793 C.3     1  ZINC000616491533   -0.1700
      2 C2        -10.3263    3.6822   63.8803 C.3     1  ZINC000616491533    0.1400
      3 H3        -10.1974    4.7317   63.6155 H       1  ZINC000616491533    0.0800
      4 C4         -9.7227    3.4148   65.2768 C.3     1  ZINC000616491533   -0.1200
      5 C5         -9.0669    2.0285   65.1080 C.3     1  ZINC000616491533   -0.0700
      6 C6         -8.5732    2.0666   63.6491 C.3     1  ZINC000616491533    0.0900
      7 N7         -9.6070    2.8320   62.9194 N.am    1  ZINC000616491533   -0.6100
      8 C8         -9.8499    2.7589   61.5958 C.2     1  ZINC000616491533    0.6100
      9 O9        -10.7313    3.4352   61.1010 O.2     1  ZINC000616491533   -0.5200
     10 C10        -9.0472    1.8592   60.7476 C.2     1  ZINC000616491533   -0.2400
     11 C11        -9.4095    0.5981   60.3182 C.2     1  ZINC000616491533    0.0700
     12 C12       -10.7000   -0.1144   60.6305 C.3     1  ZINC000616491533    0.3400
     13 F13       -11.0620    0.1367   61.9583 F       1  ZINC000616491533   -0.1900
     14 F14       -11.7069    0.3491   59.7770 F       1  ZINC000616491533   -0.1600
     15 N15        -8.3980    0.1227   59.5691 N.pl3   1  ZINC000616491533   -0.2900
     16 C16        -8.3623   -1.1295   58.9405 C.ar    1  ZINC000616491533    0.1300
     17 C17        -9.4524   -1.5679   58.2008 C.ar    1  ZINC000616491533   -0.1000
     18 C18        -9.4142   -2.8023   57.5825 C.ar    1  ZINC000616491533   -0.1000
     19 C19        -8.2919   -3.6016   57.7000 C.ar    1  ZINC000616491533   -0.1000
     20 C20        -7.2047   -3.1678   58.4361 C.ar    1  ZINC000616491533   -0.1000
     21 C21        -7.2344   -1.9317   59.0515 C.ar    1  ZINC000616491533   -0.0900
     22 N22        -7.3877    1.0899   59.5238 N.2     1  ZINC000616491533   -0.2600
     23 C23        -7.7654    2.1288   60.2169 C.2     1  ZINC000616491533    0.0700
     24 C24        -7.8976    1.8669   66.0686 C.3     1  ZINC000616491533   -0.1400
     25 C25        -7.3000    0.4649   65.9060 C.3     1  ZINC000616491533    0.0600
     26 O26        -8.3239   -0.5111   66.1103 O.3     1  ZINC000616491533   -0.3800
     27 C27        -9.3999   -0.4390   65.1725 C.3     1  ZINC000616491533    0.0600
     28 C28       -10.0935    0.9218   65.3011 C.3     1  ZINC000616491533   -0.1500
     29 H29       -11.9345    2.2713   64.1325 H       1  ZINC000616491533    0.0600
     30 H30       -12.3353    3.9371   64.6148 H       1  ZINC000616491533    0.0600
     31 H31       -12.2316    3.5106   62.8899 H       1  ZINC000616491533    0.0800
     32 H32        -8.9748    4.1680   65.5246 H       1  ZINC000616491533    0.0800
     33 H33       -10.5048    3.3818   66.0354 H       1  ZINC000616491533    0.0900
     34 H34        -7.6114    2.5757   63.5870 H       1  ZINC000616491533    0.0800
     35 H35        -8.4952    1.0559   63.2482 H       1  ZINC000616491533    0.0800
     36 H36       -10.5670   -1.1867   60.4868 H       1  ZINC000616491533    0.1400
     37 H37       -10.3295   -0.9444   58.1093 H       1  ZINC000616491533    0.1300
     38 H38       -10.2619   -3.1439   57.0070 H       1  ZINC000616491533    0.1400
     39 H39        -8.2647   -4.5668   57.2163 H       1  ZINC000616491533    0.1300
     40 H40        -6.3295   -3.7942   58.5260 H       1  ZINC000616491533    0.1400
     41 H41        -6.3849   -1.5933   59.6263 H       1  ZINC000616491533    0.1300
     42 H42        -7.1954    3.0342   60.3643 H       1  ZINC000616491533    0.2100
     43 H43        -7.1369    2.6150   65.8451 H       1  ZINC000616491533    0.0800
     44 H44        -8.2473    1.9971   67.0928 H       1  ZINC000616491533    0.0800
     45 H45        -6.8906    0.3581   64.9015 H       1  ZINC000616491533    0.0500
     46 H46        -6.5073    0.3199   66.6400 H       1  ZINC000616491533    0.1000
     47 H47        -9.0096   -0.5542   64.1613 H       1  ZINC000616491533    0.0500
     48 H48       -10.1166   -1.2337   65.3793 H       1  ZINC000616491533    0.1000
     49 H49       -10.5416    1.0097   66.2909 H       1  ZINC000616491533    0.0800
     50 H50       -10.8693    1.0083   64.5406 H       1  ZINC000616491533    0.0800
@<TRIPOS>BOND
     1     1     2    1
     2     1    29    1
     3     1    30    1
     4     1    31    1
     5     2     3    1
     6     2     7    1
     7     2     4    1
     8     4     5    1
     9     4    32    1
    10     4    33    1
    11     5    28    1
    12     5     6    1
    13     5    24    1
    14     6     7    1
    15     6    34    1
    16     6    35    1
    17     7     8   am
    18     8     9    2
    19     8    10    1
    20    10    23    1
    21    10    11    2
    22    11    12    1
    23    11    15    1
    24    12    13    1
    25    12    14    1
    26    12    36    1
    27    15    16    1
    28    15    22    1
    29    16    21   ar
    30    16    17   ar
    31    17    18   ar
    32    17    37    1
    33    18    19   ar
    34    18    38    1
    35    19    20   ar
    36    19    39    1
    37    20    21   ar
    38    20    40    1
    39    21    41    1
    40    22    23    2
    41    23    42    1
    42    24    25    1
    43    24    43    1
    44    24    44    1
    45    25    26    1
    46    25    45    1
    47    25    46    1
    48    26    27    1
    49    27    28    1
    50    27    47    1
    51    27    48    1
    52    28    49    1
    53    28    50    1
@<TRIPOS>SUBSTRUCTURE
     1 ZINC000616491533        1 TEMP              0 ****  ****    0 ROOT


##########                                Name:    ZINC000225856071
##########                DOCK_Rotatable_Bonds:                   6
##########                         Heavy_Atoms:                  29
##########                    Molecular_Weight:             409.549
##########                DOCK_Rotatable_Bonds:                   6
##########                       Formal_Charge:         -0.00999989
##########                     HBond_Acceptors:                   5
##########                        HBond_Donors:                   1
##########                         Heavy_Atoms:                  29
##########                          Grid_Score:          -28.075209
##########                     Grid_vdw_energy:          -26.582952
##########                      Grid_es_energy:           -1.492256
##########           Internal_energy_repulsive:           32.033112

@<TRIPOS>MOLECULE
ZINC000225856071
 56 58 1 0 0
SMALL
USER_CHARGES


@<TRIPOS>ATOM
      1 C1         -8.4930    1.2804   62.8085 C.3     1  ZINC000225856071    0.0200
      2 O2         -9.4358    0.2516   62.5011 O.3     1  ZINC000225856071   -0.3100
      3 C3         -9.4472   -0.2132   61.2240 C.ar    1  ZINC000225856071    0.1900
      4 C4         -8.3145   -0.8116   60.6924 C.ar    1  ZINC000225856071   -0.2300
      5 C5         -8.3288   -1.2839   59.3940 C.ar    1  ZINC000225856071    0.0700
      6 C6         -7.0984   -1.9342   58.8158 C.3     1  ZINC000225856071   -0.1800
      7 C7         -9.4710   -1.1608   58.6250 C.ar    1  ZINC000225856071   -0.7100
      8 S8         -9.4862   -1.7645   56.9698 S.o2    1  ZINC000225856071    2.7000
      9 O9         -8.8785   -3.0484   57.0053 O.2     1  ZINC000225856071   -0.9600
     10 O10       -10.7982   -1.5390   56.4726 O.2     1  ZINC000225856071   -0.9500
     11 N11        -8.4777   -0.7939   56.0847 N.am    1  ZINC000225856071   -1.1100
     12 C12        -8.7501    0.6416   55.9780 C.3     1  ZINC000225856071    0.2400
     13 H13        -9.1412    1.0088   56.9269 H       1  ZINC000225856071    0.1100
     14 C14        -9.7650    0.8808   54.8901 C.ar    1  ZINC000225856071   -0.1000
     15 C15        -9.8292    0.0270   53.8048 C.ar    1  ZINC000225856071   -0.1000
     16 C16       -10.7603    0.2463   52.8069 C.ar    1  ZINC000225856071   -0.1200
     17 C17       -11.6276    1.3192   52.8944 C.ar    1  ZINC000225856071   -0.1100
     18 C18       -11.5640    2.1725   53.9802 C.ar    1  ZINC000225856071   -0.1100
     19 C19       -10.6358    1.9507   54.9802 C.ar    1  ZINC000225856071   -0.1000
     20 C20        -7.4745    1.3715   55.6442 C.ar    1  ZINC000225856071   -0.0900
     21 C21        -7.0531    1.4612   54.3310 C.ar    1  ZINC000225856071   -0.1000
     22 C22        -5.8828    2.1309   54.0249 C.ar    1  ZINC000225856071   -0.1200
     23 C23        -5.1348    2.7109   55.0319 C.ar    1  ZINC000225856071   -0.0800
     24 C24        -3.8590    3.4403   54.6982 C.3     1  ZINC000225856071   -0.1200
     25 C25        -5.5571    2.6223   56.3454 C.ar    1  ZINC000225856071   -0.1200
     26 C26        -6.7289    1.9562   56.6511 C.ar    1  ZINC000225856071   -0.0600
     27 C27        -7.1894    1.8596   58.0828 C.3     1  ZINC000225856071   -0.1300
     28 C28       -10.6017   -0.5649   59.1528 C.ar    1  ZINC000225856071    0.0200
     29 C29       -10.5939   -0.0951   60.4518 C.ar    1  ZINC000225856071   -0.1400
     30 C30       -11.8267    0.5537   61.0265 C.3     1  ZINC000225856071   -0.1100
     31 H31        -8.6876    2.1508   62.1818 H       1  ZINC000225856071    0.0600
     32 H32        -8.5890    1.5596   63.8578 H       1  ZINC000225856071    0.1000
     33 H33        -7.4831    0.9158   62.6205 H       1  ZINC000225856071    0.0600
     34 H34        -7.4219   -0.9082   61.2928 H       1  ZINC000225856071    0.1400
     35 H35        -7.1315   -3.0071   59.0051 H       1  ZINC000225856071    0.0900
     36 H36        -7.0641   -1.7557   57.7411 H       1  ZINC000225856071    0.1000
     37 H37        -6.2096   -1.5101   59.2831 H       1  ZINC000225856071    0.0800
     38 H38        -7.7066   -1.1758   55.6371 H       1  ZINC000225856071    0.4200
     39 H39        -9.1517   -0.8113   53.7365 H       1  ZINC000225856071    0.1200
     40 H40       -10.8099   -0.4204   51.9586 H       1  ZINC000225856071    0.1200
     41 H41       -12.3545    1.4910   52.1144 H       1  ZINC000225856071    0.1200
     42 H42       -12.2413    3.0109   54.0483 H       1  ZINC000225856071    0.1200
     43 H43       -10.5862    2.6173   55.8285 H       1  ZINC000225856071    0.1200
     44 H44        -7.6376    1.0080   53.5440 H       1  ZINC000225856071    0.1200
     45 H45        -5.5532    2.2004   52.9987 H       1  ZINC000225856071    0.1200
     46 H46        -4.0802    4.4904   54.5071 H       1  ZINC000225856071    0.0700
     47 H47        -3.1658    3.3617   55.5358 H       1  ZINC000225856071    0.0700
     48 H48        -3.4083    2.9965   53.8105 H       1  ZINC000225856071    0.0700
     49 H49        -4.9728    3.0759   57.1323 H       1  ZINC000225856071    0.1200
     50 H50        -7.8269    2.7119   58.3177 H       1  ZINC000225856071    0.0800
     51 H51        -7.7514    0.9361   58.2222 H       1  ZINC000225856071    0.0700
     52 H52        -6.3228    1.8608   58.7440 H       1  ZINC000225856071    0.0700
     53 H53       -11.4930   -0.4702   58.5503 H       1  ZINC000225856071    0.1500
     54 H54       -12.4505   -0.2056   61.4983 H       1  ZINC000225856071    0.0700
     55 H55       -11.5340    1.2961   61.7690 H       1  ZINC000225856071    0.0700
     56 H56       -12.3873    1.0398   60.2280 H       1  ZINC000225856071    0.0700
@<TRIPOS>BOND
     1     1     2    1
     2     1    31    1
     3     1    32    1
     4     1    33    1
     5     2     3    1
     6     3    29   ar
     7     3     4   ar
     8     4     5   ar
     9     4    34    1
    10     5     6    1
    11     5     7   ar
    12     6    35    1
    13     6    36    1
    14     6    37    1
    15     7     8    1
    16     7    28   ar
    17     8     9    2
    18     8    10    2
    19     8    11   am
    20    11    12    1
    21    11    38    1
    22    12    13    1
    23    12    14    1
    24    12    20    1
    25    14    19   ar
    26    14    15   ar
    27    15    16   ar
    28    15    39    1
    29    16    17   ar
    30    16    40    1
    31    17    18   ar
    32    17    41    1
    33    18    19   ar
    34    18    42    1
    35    19    43    1
    36    20    26   ar
    37    20    21   ar
    38    21    22   ar
    39    21    44    1
    40    22    23   ar
    41    22    45    1
    42    23    24    1
    43    23    25   ar
    44    24    46    1
    45    24    47    1
    46    24    48    1
    47    25    26   ar
    48    25    49    1
    49    26    27    1
    50    27    50    1
    51    27    51    1
    52    27    52    1
    53    28    29   ar
    54    28    53    1
    55    29    30    1
    56    30    54    1
    57    30    55    1
    58    30    56    1
@<TRIPOS>SUBSTRUCTURE
     1 ZINC000225856071        1 TEMP              0 ****  ****    0 ROOT


##########                                Name:    ZINC000076573199
##########                DOCK_Rotatable_Bonds:                  10
##########                         Heavy_Atoms:                  24
##########                    Molecular_Weight:             333.431
##########                DOCK_Rotatable_Bonds:                  10
##########                       Formal_Charge:          -0.0200009
##########                     HBond_Acceptors:                   6
##########                        HBond_Donors:                   3
##########                         Heavy_Atoms:                  24
##########                          Grid_Score:          -28.074007
##########                     Grid_vdw_energy:          -25.297112
##########                      Grid_es_energy:           -2.776896
##########           Internal_energy_repulsive:           34.833485

@<TRIPOS>MOLECULE
ZINC000076573199
 51 51 1 0 0
SMALL
USER_CHARGES


@<TRIPOS>ATOM
      1 C1        -12.8498   -3.8569   57.3736 C.3     1  ZINC000076573199   -0.1500
      2 C2        -11.8878   -3.0285   56.5195 C.3     1  ZINC000076573199   -0.1200
      3 C3        -12.2910   -1.5538   56.5821 C.3     1  ZINC000076573199   -0.1000
      4 H4        -12.2494   -1.2094   57.6154 H       1  ZINC000076573199    0.0700
      5 C5        -13.7152   -1.3913   56.0473 C.3     1  ZINC000076573199   -0.1500
      6 C6        -11.3283   -0.7253   55.7291 C.3     1  ZINC000076573199   -0.1200
      7 C7         -9.9041   -0.8878   56.2640 C.3     1  ZINC000076573199    0.1400
      8 H8         -9.7054   -1.9425   56.4541 H       1  ZINC000076573199    0.1000
      9 C9         -8.9076   -0.3595   55.2301 C.3     1  ZINC000076573199   -0.1700
     10 N10        -9.7614   -0.1316   57.5106 N.am    1  ZINC000076573199   -0.6900
     11 C11        -9.9473   -0.7454   58.6961 C.2     1  ZINC000076573199    0.5100
     12 O12       -10.2344   -1.9240   58.7308 O.2     1  ZINC000076573199   -0.5100
     13 C13        -9.8000    0.0251   59.9671 C.2     1  ZINC000076573199    0.5100
     14 O14        -9.5109    1.2035   59.9324 O.2     1  ZINC000076573199   -0.5000
     15 N15        -9.9881   -0.5880   61.1525 N.am    1  ZINC000076573199   -0.6400
     16 C16        -9.8503    0.1328   62.3414 C.ar    1  ZINC000076573199    0.1500
     17 C17       -10.9698    0.6788   62.9577 C.ar    1  ZINC000076573199   -0.1300
     18 C18       -10.8341    1.3913   64.1337 C.ar    1  ZINC000076573199   -0.0800
     19 C19        -9.5861    1.5633   64.7007 C.ar    1  ZINC000076573199   -0.1200
     20 C20        -9.4430    2.3408   65.9837 C.3     1  ZINC000076573199   -0.1100
     21 C21        -8.4626    1.0199   64.0895 C.ar    1  ZINC000076573199    0.1600
     22 N22        -7.1991    1.1947   64.6647 N.am    1  ZINC000076573199   -0.6700
     23 C23        -6.7918    0.3791   65.6573 C.2     1  ZINC000076573199    0.5100
     24 C24        -5.4310    0.5673   66.2768 C.3     1  ZINC000076573199   -0.1700
     25 O25        -7.5205   -0.5064   66.0521 O.2     1  ZINC000076573199   -0.5200
     26 C26        -8.5956    0.2995   62.9117 C.ar    1  ZINC000076573199   -0.1400
     27 H27       -13.8648   -3.7412   56.9933 H       1  ZINC000076573199    0.0600
     28 H28       -12.5626   -4.9073   57.3290 H       1  ZINC000076573199    0.0500
     29 H29       -12.8074   -3.5121   58.4067 H       1  ZINC000076573199    0.0500
     30 H30       -10.8729   -3.1441   56.8997 H       1  ZINC000076573199    0.0600
     31 H31       -11.9304   -3.3732   55.4864 H       1  ZINC000076573199    0.0600
     32 H32       -13.7390   -1.6573   54.9905 H       1  ZINC000076573199    0.0600
     33 H33       -14.3884   -2.0453   56.6018 H       1  ZINC000076573199    0.0600
     34 H34       -14.0329   -0.3558   56.1686 H       1  ZINC000076573199    0.0500
     35 H35       -11.3698   -1.0698   54.6959 H       1  ZINC000076573199    0.0800
     36 H36       -11.6155    0.3252   55.7737 H       1  ZINC000076573199    0.0700
     37 H37        -7.8930   -0.4753   55.6111 H       1  ZINC000076573199    0.0600
     38 H38        -9.0138   -0.9221   54.3026 H       1  ZINC000076573199    0.0700
     39 H39        -9.1062    0.6953   55.0400 H       1  ZINC000076573199    0.0600
     40 H40        -9.5330    0.8107   57.4829 H       1  ZINC000076573199    0.4100
     41 H41       -10.2192   -1.5297   61.1801 H       1  ZINC000076573199    0.4200
     42 H42       -11.9467    0.5464   62.5167 H       1  ZINC000076573199    0.1400
     43 H43       -11.7055    1.8150   64.6105 H       1  ZINC000076573199    0.1300
     44 H44        -9.5340    1.6621   66.8317 H       1  ZINC000076573199    0.0700
     45 H45        -8.4666    2.8244   66.0084 H       1  ZINC000076573199    0.0600
     46 H46       -10.2251    3.0980   66.0387 H       1  ZINC000076573199    0.0700
     47 H47        -6.6163    1.9030   64.3491 H       1  ZINC000076573199    0.4100
     48 H48        -5.3646    1.5647   66.7116 H       1  ZINC000076573199    0.0900
     49 H49        -5.2801   -0.1795   67.0563 H       1  ZINC000076573199    0.1000
     50 H50        -4.6641    0.4531   65.5107 H       1  ZINC000076573199    0.0900
     51 H51        -7.7239   -0.1238   62.4348 H       1  ZINC000076573199    0.1400
@<TRIPOS>BOND
     1     1     2    1
     2     1    27    1
     3     1    28    1
     4     1    29    1
     5     2     3    1
     6     2    30    1
     7     2    31    1
     8     3     4    1
     9     3     5    1
    10     3     6    1
    11     5    32    1
    12     5    33    1
    13     5    34    1
    14     6     7    1
    15     6    35    1
    16     6    36    1
    17     7     8    1
    18     7     9    1
    19     7    10    1
    20     9    37    1
    21     9    38    1
    22     9    39    1
    23    10    11   am
    24    10    40    1
    25    11    12    2
    26    11    13    1
    27    13    14    2
    28    13    15   am
    29    15    16    1
    30    15    41    1
    31    16    26   ar
    32    16    17   ar
    33    17    18   ar
    34    17    42    1
    35    18    19   ar
    36    18    43    1
    37    19    20    1
    38    19    21   ar
    39    20    44    1
    40    20    45    1
    41    20    46    1
    42    21    22    1
    43    21    26   ar
    44    22    23   am
    45    22    47    1
    46    23    24    1
    47    23    25    2
    48    24    48    1
    49    24    49    1
    50    24    50    1
    51    26    51    1
@<TRIPOS>SUBSTRUCTURE
     1 ZINC000076573199        1 TEMP              0 ****  ****    0 ROOT


##########                                Name:    ZINC000286156371
##########                DOCK_Rotatable_Bonds:                   7
##########                         Heavy_Atoms:                  25
##########                    Molecular_Weight:             350.418
##########                DOCK_Rotatable_Bonds:                   7
##########                       Formal_Charge:          0.00999908
##########                     HBond_Acceptors:                   8
##########                        HBond_Donors:                   2
##########                         Heavy_Atoms:                  25
##########                          Grid_Score:          -28.048601
##########                     Grid_vdw_energy:          -25.257521
##########                      Grid_es_energy:           -2.791081
##########           Internal_energy_repulsive:           11.665495

@<TRIPOS>MOLECULE
ZINC000286156371
 51 53 1 0 0
SMALL
USER_CHARGES


@<TRIPOS>ATOM
      1 C1         -7.4868    2.0818   53.2379 C.3     1  <0>        -0.1800
      2 C2         -7.1883    2.2409   51.7457 C.3     1  <0>         0.1400
      3 C3         -7.0018    0.8605   51.1129 C.3     1  <0>        -0.1800
      4 C4         -8.3553    2.9601   51.0662 C.3     1  <0>        -0.1400
      5 O5         -5.9747    3.0195   51.5753 O.3     1  <0>        -0.3600
      6 C6         -5.7373    3.9876   52.4803 C.2     1  <0>         0.6800
      7 O7         -6.5009    4.9278   52.5786 O.2     1  <0>        -0.5600
      8 N8         -4.6529    3.9141   53.2772 N.am    1  <0>        -0.5800
      9 C9         -4.2743    4.8997   54.3061 C.3     1  <0>         0.0700
     10 C10        -3.3982    4.1089   55.3095 C.3     1  <0>         0.0900
     11 H11        -2.7202    4.7737   55.8446 H       1  <0>         0.0900
     12 O12        -4.2086    3.3655   56.2220 O.3     1  <0>        -0.5500
     13 C13        -2.6157    3.1624   54.3612 C.3     1  <0>        -0.1200
     14 C14        -3.6551    2.8343   53.2688 C.3     1  <0>         0.1500
     15 H15        -4.1331    1.8793   53.4869 H       1  <0>         0.1100
     16 C16        -2.9816    2.7745   51.9220 C.2     1  <0>         0.5200
     17 O17        -2.5097    3.7799   51.4347 O.2     1  <0>        -0.4900
     18 N18        -2.9036    1.6036   51.2590 N.am    1  <0>        -0.6300
     19 C19        -2.2758    1.5475   50.0072 C.2     1  <0>         0.3000
     20 N20        -2.8231    1.8624   48.8549 N.2     1  <0>        -0.3200
     21 N21        -1.8678    1.6714   47.8541 N.pl3   1  <0>        -0.3600
     22 C22        -2.0278    1.8968   46.4142 C.3     1  <0>         0.1400
     23 C23        -0.6398    1.9805   45.7704 C.3     1  <0>        -0.1400
     24 C24         0.1996    0.7748   46.2031 C.3     1  <0>        -0.1300
     25 C25         0.5403    0.9062   47.6934 C.3     1  <0>        -0.0600
     26 C26        -0.7300    1.2312   48.4399 C.2     1  <0>         0.0900
     27 C27        -0.9488    1.1505   49.7666 C.2     1  <0>        -0.2600
     28 H28        -6.6554    1.5694   53.7221 H       1  <0>         0.0900
     29 H29        -7.6197    3.0652   53.6887 H       1  <0>         0.0600
     30 H30        -8.3979    1.4973   53.3659 H       1  <0>         0.0700
     31 H31        -7.9129    0.2760   51.2409 H       1  <0>         0.0700
     32 H32        -6.7893    0.9739   50.0498 H       1  <0>         0.0600
     33 H33        -6.1704    0.3481   51.5971 H       1  <0>         0.0900
     34 H34        -8.4882    3.9436   51.5170 H       1  <0>         0.0700
     35 H35        -8.1427    3.0734   50.0031 H       1  <0>         0.0700
     36 H36        -9.2664    2.3756   51.1941 H       1  <0>         0.0800
     37 H37        -3.7007    5.7123   53.8601 H       1  <0>         0.0800
     38 H38        -5.1625    5.2895   54.8032 H       1  <0>         0.0900
     39 H39        -3.7110    2.9415   56.9345 H       1  <0>         0.3900
     40 H40        -1.7509    3.6715   53.9355 H       1  <0>         0.1000
     41 H41        -2.3115    2.2564   54.8855 H       1  <0>         0.1100
     42 H42        -3.2820    0.7997   51.6482 H       1  <0>         0.4200
     43 H43        -2.5852    1.0696   45.9748 H       1  <0>         0.0800
     44 H44        -2.5645    2.8308   46.2482 H       1  <0>         0.0900
     45 H45        -0.7423    1.9808   44.6852 H       1  <0>         0.0900
     46 H46        -0.1467    2.8991   46.0886 H       1  <0>         0.0800
     47 H47        -0.3673   -0.1415   46.0386 H       1  <0>         0.0700
     48 H48         1.1203    0.7440   45.6204 H       1  <0>         0.0800
     49 H49         0.9526   -0.0337   48.0607 H       1  <0>         0.0900
     50 H50         1.2658    1.7072   47.8356 H       1  <0>         0.0900
     51 H51        -0.2335    0.8351   50.5117 H       1  <0>         0.1700
@<TRIPOS>BOND
     1     1     2    1
     2     1    28    1
     3     1    29    1
     4     1    30    1
     5     2     3    1
     6     2     4    1
     7     2     5    1
     8     3    31    1
     9     3    32    1
    10     3    33    1
    11     4    34    1
    12     4    35    1
    13     4    36    1
    14     5     6    1
    15     6     7    2
    16     6     8   am
    17     8    14    1
    18     8     9    1
    19     9    10    1
    20     9    37    1
    21     9    38    1
    22    10    11    1
    23    10    12    1
    24    10    13    1
    25    12    39    1
    26    13    14    1
    27    13    40    1
    28    13    41    1
    29    14    15    1
    30    14    16    1
    31    16    17    2
    32    16    18   am
    33    18    19    1
    34    18    42    1
    35    19    27    1
    36    19    20    2
    37    20    21    1
    38    21    26    1
    39    21    22    1
    40    22    23    1
    41    22    43    1
    42    22    44    1
    43    23    24    1
    44    23    45    1
    45    23    46    1
    46    24    25    1
    47    24    47    1
    48    24    48    1
    49    25    26    1
    50    25    49    1
    51    25    50    1
    52    26    27    2
    53    27    51    1
@<TRIPOS>SUBSTRUCTURE
     1 <0>         1 TEMP              0 ****  ****    0 ROOT


##########                                Name:    ZINC001500042809
##########                DOCK_Rotatable_Bonds:                   9
##########                         Heavy_Atoms:                  24
##########                    Molecular_Weight:              346.45
##########                DOCK_Rotatable_Bonds:                   9
##########                       Formal_Charge:           0.0200001
##########                     HBond_Acceptors:                   6
##########                        HBond_Donors:                   2
##########                         Heavy_Atoms:                  24
##########                          Grid_Score:          -28.047325
##########                     Grid_vdw_energy:          -27.251707
##########                      Grid_es_energy:           -0.795618
##########           Internal_energy_repulsive:           18.633015

@<TRIPOS>MOLECULE
ZINC001500042809
 46 47 1 0 0
SMALL
USER_CHARGES


@<TRIPOS>ATOM
      1 C1         -7.0955   -1.5887   58.6117 C.3     1  ZINC001500042809    0.0200
      2 O2         -7.9520   -0.4840   58.3149 O.3     1  ZINC001500042809   -0.3100
      3 C3         -7.5869    0.3190   57.2836 C.ar    1  ZINC001500042809    0.1600
      4 C4         -6.6288    1.3068   57.4798 C.ar    1  ZINC001500042809   -0.1600
      5 C5         -6.2560    2.1240   56.4360 C.ar    1  ZINC001500042809   -0.0200
      6 C6         -6.8419    1.9588   55.1782 C.ar    1  ZINC001500042809   -0.1800
      7 C7         -6.4451    2.8325   54.0567 C.2     1  ZINC001500042809    0.5600
      8 O8         -6.8747    3.9679   53.9890 O.2     1  ZINC001500042809   -0.5300
      9 N9         -5.6064    2.3716   53.1076 N.am    1  ZINC001500042809   -0.7300
     10 C10        -5.2111    3.2394   51.9953 C.3     1  ZINC001500042809    0.1300
     11 C11        -5.4286    2.5031   50.6719 C.3     1  ZINC001500042809   -0.1200
     12 H12        -5.0097    1.4992   50.7415 H       1  ZINC001500042809    0.0900
     13 C13        -6.9276    2.4110   50.3798 C.3     1  ZINC001500042809   -0.1500
     14 C14        -4.7350    3.2680   49.5428 C.3     1  ZINC001500042809    0.1300
     15 N15        -3.2837    3.1110   49.6663 N.am    1  ZINC001500042809   -0.7300
     16 C16        -2.6435    2.1713   48.9427 C.2     1  ZINC001500042809    0.5900
     17 O17        -3.2709    1.4541   48.1856 O.2     1  ZINC001500042809   -0.5200
     18 C18        -1.1916    2.0130   49.0676 C.2     1  ZINC001500042809   -0.2800
     19 C19        -0.4400    1.0651   48.4321 C.2     1  ZINC001500042809   -0.0100
     20 C20        -1.0218    0.0358   47.4978 C.3     1  ZINC001500042809   -0.1100
     21 C21         0.8999    1.1444   48.7295 C.2     1  ZINC001500042809   -0.1500
     22 C22         1.2359    2.1224   49.5788 C.2     1  ZINC001500042809   -0.2200
     23 S23        -0.1372    3.0170   50.0533 S.3     1  ZINC001500042809    0.1900
     24 C24        -7.8084    0.9681   54.9865 C.ar    1  ZINC001500042809   -0.0400
     25 C25        -8.1723    0.1518   56.0341 C.ar    1  ZINC001500042809   -0.2200
     26 H26        -7.0297   -2.2415   57.7412 H       1  ZINC001500042809    0.0600
     27 H27        -6.1016   -1.2199   58.8652 H       1  ZINC001500042809    0.0600
     28 H28        -7.5019   -2.1473   59.4549 H       1  ZINC001500042809    0.1000
     29 H29        -6.1765    1.4339   58.4522 H       1  ZINC001500042809    0.1400
     30 H30        -5.5121    2.8916   56.5894 H       1  ZINC001500042809    0.1400
     31 H31        -5.2646    1.4655   53.1610 H       1  ZINC001500042809    0.4000
     32 H32        -4.1581    3.5022   52.0961 H       1  ZINC001500042809    0.0800
     33 H33        -5.8151    4.1466   52.0099 H       1  ZINC001500042809    0.0800
     34 H34        -7.4217    1.8661   51.1842 H       1  ZINC001500042809    0.0600
     35 H35        -7.3465    3.4149   50.3102 H       1  ZINC001500042809    0.0600
     36 H36        -7.0825    1.8865   49.4370 H       1  ZINC001500042809    0.0600
     37 H37        -5.0628    2.8728   48.5814 H       1  ZINC001500042809    0.0800
     38 H38        -4.9930    4.3250   49.6081 H       1  ZINC001500042809    0.0800
     39 H39        -2.7834    3.6835   50.2688 H       1  ZINC001500042809    0.4000
     40 H40        -1.0239    0.4281   46.4808 H       1  ZINC001500042809    0.0800
     41 H41        -0.4190   -0.8716   47.5360 H       1  ZINC001500042809    0.0700
     42 H42        -2.0434   -0.1937   47.8007 H       1  ZINC001500042809    0.0900
     43 H43         1.6278    0.4667   48.3087 H       1  ZINC001500042809    0.1500
     44 H44         2.2426    2.3213   49.9157 H       1  ZINC001500042809    0.1700
     45 H45        -8.2667    0.8402   54.0169 H       1  ZINC001500042809    0.1300
     46 H46        -8.9168   -0.6163   55.8859 H       1  ZINC001500042809    0.1400
@<TRIPOS>BOND
     1     1     2    1
     2     1    26    1
     3     1    27    1
     4     1    28    1
     5     2     3    1
     6     3    25   ar
     7     3     4   ar
     8     4     5   ar
     9     4    29    1
    10     5     6   ar
    11     5    30    1
    12     6     7    1
    13     6    24   ar
    14     7     8    2
    15     7     9   am
    16     9    10    1
    17     9    31    1
    18    10    11    1
    19    10    32    1
    20    10    33    1
    21    11    12    1
    22    11    13    1
    23    11    14    1
    24    13    34    1
    25    13    35    1
    26    13    36    1
    27    14    15    1
    28    14    37    1
    29    14    38    1
    30    15    16   am
    31    15    39    1
    32    16    17    2
    33    16    18    1
    34    18    23    1
    35    18    19    2
    36    19    20    1
    37    19    21    1
    38    20    40    1
    39    20    41    1
    40    20    42    1
    41    21    22    2
    42    21    43    1
    43    22    23    1
    44    22    44    1
    45    24    25   ar
    46    24    45    1
    47    25    46    1
@<TRIPOS>SUBSTRUCTURE
     1 ZINC001500042809        1 TEMP              0 ****  ****    0 ROOT


##########                                Name:    ZINC000444205493
##########                DOCK_Rotatable_Bonds:                   4
##########                         Heavy_Atoms:                  24
##########                    Molecular_Weight:             415.351
##########                DOCK_Rotatable_Bonds:                   4
##########                       Formal_Charge:         -0.00999995
##########                     HBond_Acceptors:                   6
##########                        HBond_Donors:                   1
##########                         Heavy_Atoms:                  24
##########                          Grid_Score:          -28.034971
##########                     Grid_vdw_energy:          -25.018147
##########                      Grid_es_energy:           -3.016824
##########           Internal_energy_repulsive:            6.257264

@<TRIPOS>MOLECULE
ZINC000444205493
 47 49 1 0 0
SMALL
USER_CHARGES


@<TRIPOS>ATOM
      1 C1        -20.2813    1.9295   58.8047 C.3     1  ZINC000444205493   -0.1700
      2 C2        -19.1670    0.9342   59.0022 C.2     1  ZINC000444205493    0.5100
      3 O3        -19.0095    0.4068   60.0829 O.2     1  ZINC000444205493   -0.5100
      4 N4        -18.3455    0.6304   57.9778 N.am    1  ZINC000444205493   -0.6800
      5 C5        -17.3107   -0.2940   58.1612 C.ar    1  ZINC000444205493    0.2300
      6 C6        -17.4342   -1.5842   57.6643 C.ar    1  ZINC000444205493   -0.1400
      7 C7        -16.4108   -2.4942   57.8464 C.ar    1  ZINC000444205493    0.0200
      8 C8        -15.2643   -2.1215   58.5233 C.ar    1  ZINC000444205493   -0.6900
      9 S9        -13.9619   -3.2857   58.7537 S.o2    1  ZINC000444205493    2.7100
     10 O10       -13.8043   -3.4389   60.1575 O.2     1  ZINC000444205493   -0.9500
     11 O11       -14.2353   -4.3719   57.8791 O.2     1  ZINC000444205493   -0.9500
     12 N12       -12.5697   -2.5795   58.2011 N.am    1  ZINC000444205493   -1.0100
     13 C13       -12.3329   -2.1064   56.8241 C.3     1  ZINC000444205493    0.1200
     14 C14       -11.2275   -1.0266   56.9564 C.3     1  ZINC000444205493   -0.1200
     15 C15       -10.3579   -1.6148   58.0845 C.3     1  ZINC000444205493   -0.0700
     16 C16        -9.3284   -2.6007   57.5226 C.3     1  ZINC000444205493   -0.1100
     17 C17        -8.0240   -1.7660   57.4303 C.3     1  ZINC000444205493   -0.1200
     18 C18        -8.0962   -0.8709   58.6936 C.3     1  ZINC000444205493   -0.1000
     19 H19        -7.7589   -1.4222   59.5713 H       1  ZINC000444205493    0.0700
     20 C20        -7.2571    0.3940   58.5022 C.3     1  ZINC000444205493   -0.1500
     21 C21        -9.5948   -0.5149   58.8217 C.3     1  ZINC000444205493   -0.1100
     22 C22       -11.3643   -2.3135   59.0047 C.3     1  ZINC000444205493    0.1300
     23 C23       -15.1372   -0.8370   59.0195 C.ar    1  ZINC000444205493    0.0300
     24 C24       -16.1547    0.0796   58.8362 C.ar    1  ZINC000444205493   -0.1500
     25 Br25      -15.9805    1.8360   59.5150 Br      1  ZINC000444205493   -0.0300
     26 H26       -20.8345    2.0451   59.7367 H       1  ZINC000444205493    0.1000
     27 H27       -19.8615    2.8912   58.5097 H       1  ZINC000444205493    0.1000
     28 H28       -20.9537    1.5720   58.0249 H       1  ZINC000444205493    0.1000
     29 H29       -18.4715    1.0523   57.1135 H       1  ZINC000444205493    0.4200
     30 H30       -18.3298   -1.8765   57.1360 H       1  ZINC000444205493    0.1600
     31 H31       -16.5067   -3.4981   57.4599 H       1  ZINC000444205493    0.1500
     32 H32       -11.9876   -2.9273   56.1955 H       1  ZINC000444205493    0.0800
     33 H33       -13.2424   -1.6692   56.4120 H       1  ZINC000444205493    0.0800
     34 H34       -10.6581   -0.9345   56.0314 H       1  ZINC000444205493    0.0900
     35 H35       -11.6517   -0.0665   57.2498 H       1  ZINC000444205493    0.0800
     36 H36        -9.1959   -3.4434   58.2011 H       1  ZINC000444205493    0.0700
     37 H37        -9.6309   -2.9479   56.5347 H       1  ZINC000444205493    0.0700
     38 H38        -7.1481   -2.4137   57.4659 H       1  ZINC000444205493    0.0700
     39 H39        -8.0187   -1.1573   56.5261 H       1  ZINC000444205493    0.0700
     40 H40        -7.6196    0.9423   57.6327 H       1  ZINC000444205493    0.0500
     41 H41        -7.3401    1.0227   59.3887 H       1  ZINC000444205493    0.0500
     42 H42        -6.2138    0.1182   58.3489 H       1  ZINC000444205493    0.0500
     43 H43        -9.7911    0.4523   58.3590 H       1  ZINC000444205493    0.0700
     44 H44        -9.8870   -0.4951   59.8716 H       1  ZINC000444205493    0.0700
     45 H45       -11.6079   -1.6675   59.8481 H       1  ZINC000444205493    0.0700
     46 H46       -10.9483   -3.2546   59.3644 H       1  ZINC000444205493    0.0800
     47 H47       -14.2402   -0.5488   59.5475 H       1  ZINC000444205493    0.1500
@<TRIPOS>BOND
     1     1     2    1
     2     1    26    1
     3     1    27    1
     4     1    28    1
     5     2     3    2
     6     2     4   am
     7     4     5    1
     8     4    29    1
     9     5    24   ar
    10     5     6   ar
    11     6     7   ar
    12     6    30    1
    13     7     8   ar
    14     7    31    1
    15     8     9    1
    16     8    23   ar
    17     9    10    2
    18     9    11    2
    19     9    12   am
    20    12    22    1
    21    12    13    1
    22    13    14    1
    23    13    32    1
    24    13    33    1
    25    14    15    1
    26    14    34    1
    27    14    35    1
    28    15    21    1
    29    15    16    1
    30    15    22    1
    31    16    17    1
    32    16    36    1
    33    16    37    1
    34    17    18    1
    35    17    38    1
    36    17    39    1
    37    18    19    1
    38    18    20    1
    39    18    21    1
    40    20    40    1
    41    20    41    1
    42    20    42    1
    43    21    43    1
    44    21    44    1
    45    22    45    1
    46    22    46    1
    47    23    24   ar
    48    23    47    1
    49    24    25    1
@<TRIPOS>SUBSTRUCTURE
     1 ZINC000444205493        1 TEMP              0 ****  ****    0 ROOT


##########                                Name:    ZINC000338927927
##########                DOCK_Rotatable_Bonds:                   9
##########                         Heavy_Atoms:                  23
##########                    Molecular_Weight:             336.286
##########                DOCK_Rotatable_Bonds:                   9
##########                       Formal_Charge:         -0.00999999
##########                     HBond_Acceptors:                   9
##########                        HBond_Donors:                   2
##########                         Heavy_Atoms:                  23
##########                          Grid_Score:          -27.998236
##########                     Grid_vdw_energy:          -23.173916
##########                      Grid_es_energy:           -4.824320
##########           Internal_energy_repulsive:           16.687132

@<TRIPOS>MOLECULE
ZINC000338927927
 39 39 1 0 0
SMALL
USER_CHARGES


@<TRIPOS>ATOM
      1 C1        -10.5225    2.3058   66.0595 C.3     1  <0>        -0.1600
      2 C2        -10.5481    1.8388   64.6028 C.3     1  <0>        -0.1100
      3 C3         -9.1827    1.2581   64.2294 C.3     1  <0>        -0.1000
      4 H4         -8.4007    1.9704   64.4925 H       1  <0>         0.1400
      5 C5         -9.1395    0.9892   62.7472 C.2     1  <0>         0.5200
      6 O6        -10.1588    0.7128   62.1509 O.2     1  <0>        -0.4700
      7 N7         -7.9679    1.0560   62.0841 N.am    1  <0>        -0.6700
      8 C8         -7.9277    0.8064   60.7080 C.ar    1  <0>         0.2200
      9 C9         -7.8452    1.8643   59.8121 C.ar    1  <0>        -0.2300
     10 C10        -7.8054    1.6181   58.4506 C.ar    1  <0>         0.1700
     11 F11        -7.7252    2.6487   57.5809 F       1  <0>        -0.1300
     12 C12        -7.8470    0.3180   57.9792 C.ar    1  <0>        -0.2500
     13 C13        -7.9294   -0.7434   58.8721 C.ar    1  <0>         0.2600
     14 N14        -7.9718   -2.0557   58.3958 N.pl3   1  <0>        -0.7400
     15 C15        -8.8733   -2.4070   57.2957 C.3     1  <0>         0.0800
     16 C16       -10.2196   -2.8594   57.8644 C.3     1  <0>         0.4500
     17 F17       -10.9571   -3.5004   56.8631 F       1  <0>        -0.1800
     18 F18       -10.0037   -3.7463   58.9247 F       1  <0>        -0.1700
     19 F19       -10.9292   -1.7453   58.3255 F       1  <0>        -0.1800
     20 C20        -7.9642   -0.4988   60.2377 C.ar    1  <0>        -0.2000
     21 C21        -8.9623   -0.0299   64.9801 C.2     1  <0>         0.4600
     22 O22        -9.8838   -0.7906   65.1584 O.2     1  <0>        -0.4600
     23 O23        -7.7420   -0.3320   65.4507 O.3     1  <0>        -0.3500
     24 C24        -6.7024    0.6665   65.2762 C.3     1  <0>         0.0300
     25 H25        -9.7564    3.0711   66.1824 H       1  <0>         0.0600
     26 H26       -11.4953    2.7194   66.3255 H       1  <0>         0.0600
     27 H27       -10.2979    1.4593   66.7085 H       1  <0>         0.0800
     28 H28       -11.3144    1.0734   64.4799 H       1  <0>         0.0800
     29 H29       -10.7726    2.6853   63.9538 H       1  <0>         0.0800
     30 H30        -7.1527    1.2771   62.5609 H       1  <0>         0.4200
     31 H31        -7.8127    2.8798   60.1780 H       1  <0>         0.1400
     32 H32        -7.8157    0.1280   56.9165 H       1  <0>         0.1400
     33 H33        -7.4044   -2.7344   58.7934 H       1  <0>         0.4100
     34 H34        -9.0229   -1.5368   56.6566 H       1  <0>         0.1100
     35 H35        -8.4353   -3.2160   56.7113 H       1  <0>         0.1100
     36 H36        -8.0283   -1.3225   60.9331 H       1  <0>         0.1500
     37 H37        -5.7686    0.2967   65.6998 H       1  <0>         0.1000
     38 H38        -6.5652    0.8663   64.2135 H       1  <0>         0.0600
     39 H39        -6.9928    1.5861   65.7843 H       1  <0>         0.0600
@<TRIPOS>BOND
     1     1     2    1
     2     1    25    1
     3     1    26    1
     4     1    27    1
     5     2     3    1
     6     2    28    1
     7     2    29    1
     8     3     4    1
     9     3     5    1
    10     3    21    1
    11     5     6    2
    12     5     7   am
    13     7     8    1
    14     7    30    1
    15     8    20   ar
    16     8     9   ar
    17     9    10   ar
    18     9    31    1
    19    10    11    1
    20    10    12   ar
    21    12    13   ar
    22    12    32    1
    23    13    14    1
    24    13    20   ar
    25    14    15    1
    26    14    33    1
    27    15    16    1
    28    15    34    1
    29    15    35    1
    30    16    17    1
    31    16    18    1
    32    16    19    1
    33    20    36    1
    34    21    22    2
    35    21    23    1
    36    23    24    1
    37    24    37    1
    38    24    38    1
    39    24    39    1
@<TRIPOS>SUBSTRUCTURE
     1 <0>         1 TEMP              0 ****  ****    0 ROOT


##########                                Name:    ZINC000986832075
##########                DOCK_Rotatable_Bonds:                   7
##########                         Heavy_Atoms:                  25
##########                    Molecular_Weight:             347.433
##########                DOCK_Rotatable_Bonds:                   7
##########                       Formal_Charge:          -0.0200006
##########                     HBond_Acceptors:                   6
##########                        HBond_Donors:                   1
##########                         Heavy_Atoms:                  25
##########                          Grid_Score:          -27.952890
##########                     Grid_vdw_energy:          -26.952879
##########                      Grid_es_energy:           -1.000011
##########           Internal_energy_repulsive:           40.548336

@<TRIPOS>MOLECULE
ZINC000986832075
 51 53 1 0 0
SMALL
USER_CHARGES


@<TRIPOS>ATOM
      1 C1         -6.5914    3.5763   53.6870 C.3     1  ZINC000986832075   -0.1700
      2 C2         -6.5408    2.8938   52.3186 C.3     1  ZINC000986832075    0.1500
      3 H3         -6.9945    1.9053   52.3887 H       1  ZINC000986832075    0.0900
      4 N4         -7.2773    3.7011   51.3428 N.am    1  ZINC000986832075   -0.7200
      5 C5         -8.5863    3.4659   51.1245 C.2     1  ZINC000986832075    0.5600
      6 O6         -9.1561    2.5851   51.7381 O.2     1  ZINC000986832075   -0.5100
      7 C7         -9.3298    4.2802   50.1374 C.ar    1  ZINC000986832075   -0.1300
      8 C8        -10.6127    3.9107   49.7207 C.ar    1  ZINC000986832075   -0.1100
      9 C9        -11.2707    4.6994   48.7978 C.ar    1  ZINC000986832075    0.0900
     10 N10       -10.7071    5.7867   48.3098 N.ar    1  ZINC000986832075   -0.4400
     11 C11        -9.5010    6.1732   48.6730 C.ar    1  ZINC000986832075    0.0700
     12 C12        -8.7708    5.4461   49.5984 C.ar    1  ZINC000986832075    0.1100
     13 F13        -7.5347    5.8484   49.9662 F       1  ZINC000986832075   -0.1000
     14 C14        -5.0843    2.7559   51.8709 C.3     1  ZINC000986832075   -0.1000
     15 C15        -4.9566    1.5730   50.9085 C.3     1  ZINC000986832075   -0.1300
     16 C16        -3.4914    1.4166   50.4893 C.3     1  ZINC000986832075    0.1100
     17 N17        -3.0175    2.6946   49.9409 N.am    1  ZINC000986832075   -0.6100
     18 C18        -2.4489    2.7493   48.7202 C.2     1  ZINC000986832075    0.5200
     19 O19        -2.0618    3.8104   48.2786 O.2     1  ZINC000986832075   -0.5300
     20 C20        -2.2943    1.4920   47.9040 C.3     1  ZINC000986832075   -0.0800
     21 H21        -3.2219    0.9206   47.9375 H       1  ZINC000986832075    0.0900
     22 C22        -1.1544    0.6481   48.4781 C.3     1  ZINC000986832075   -0.1400
     23 C23        -1.9750    1.8613   46.4539 C.3     1  ZINC000986832075   -0.1400
     24 C24        -0.5812    1.5137   45.9269 C.3     1  ZINC000986832075   -0.1800
     25 C25        -1.7984    0.7154   45.4556 C.3     1  ZINC000986832075   -0.1700
     26 C26        -3.1755    3.9118   50.7484 C.3     1  ZINC000986832075    0.1000
     27 C27        -4.6442    4.0402   51.1645 C.3     1  ZINC000986832075   -0.1300
     28 H28        -7.6290    3.6745   54.0060 H       1  ZINC000986832075    0.0600
     29 H29        -6.0433    2.9757   54.4130 H       1  ZINC000986832075    0.0700
     30 H30        -6.1376    4.5649   53.6170 H       1  ZINC000986832075    0.0600
     31 H31        -6.8228    4.4049   50.8538 H       1  ZINC000986832075    0.4000
     32 H32       -11.0818    3.0213   50.1148 H       1  ZINC000986832075    0.1500
     33 H33       -12.2617    4.4213   48.4707 H       1  ZINC000986832075    0.1700
     34 H34        -9.0781    7.0710   48.2468 H       1  ZINC000986832075    0.1800
     35 H35        -4.4512    2.5853   52.7417 H       1  ZINC000986832075    0.0800
     36 H36        -5.2923    0.6623   51.4046 H       1  ZINC000986832075    0.0700
     37 H37        -5.5701    1.7542   50.0259 H       1  ZINC000986832075    0.0800
     38 H38        -2.8901    1.1459   51.3572 H       1  ZINC000986832075    0.0700
     39 H39        -3.4097    0.6399   49.7290 H       1  ZINC000986832075    0.0900
     40 H40        -0.2464    1.2491   48.5267 H       1  ZINC000986832075    0.0600
     41 H41        -1.4209    0.3109   49.4798 H       1  ZINC000986832075    0.0600
     42 H42        -0.9839   -0.2167   47.8369 H       1  ZINC000986832075    0.0700
     43 H43        -2.4365    2.7793   46.0900 H       1  ZINC000986832075    0.1100
     44 H44        -0.1256    2.2032   45.2162 H       1  ZINC000986832075    0.1000
     45 H45         0.1082    1.0220   46.6132 H       1  ZINC000986832075    0.0900
     46 H46        -1.9097   -0.3015   45.8318 H       1  ZINC000986832075    0.0900
     47 H47        -2.1434    0.8797   44.4348 H       1  ZINC000986832075    0.1000
     48 H48        -2.5484    3.8446   51.6374 H       1  ZINC000986832075    0.0700
     49 H49        -2.8854    4.7817   50.1589 H       1  ZINC000986832075    0.0900
     50 H50        -5.2607    4.1982   50.2796 H       1  ZINC000986832075    0.0800
     51 H51        -4.7575    4.8857   51.8431 H       1  ZINC000986832075    0.0800
@<TRIPOS>BOND
     1     1     2    1
     2     1    28    1
     3     1    29    1
     4     1    30    1
     5     2     3    1
     6     2     4    1
     7     2    14    1
     8     4     5   am
     9     4    31    1
    10     5     6    2
    11     5     7    1
    12     7    12   ar
    13     7     8   ar
    14     8     9   ar
    15     8    32    1
    16     9    10   ar
    17     9    33    1
    18    10    11   ar
    19    11    12   ar
    20    11    34    1
    21    12    13    1
    22    14    27    1
    23    14    15    1
    24    14    35    1
    25    15    16    1
    26    15    36    1
    27    15    37    1
    28    16    17    1
    29    16    38    1
    30    16    39    1
    31    17    18   am
    32    17    26    1
    33    18    19    2
    34    18    20    1
    35    20    21    1
    36    20    22    1
    37    20    23    1
    38    22    40    1
    39    22    41    1
    40    22    42    1
    41    23    25    1
    42    23    24    1
    43    23    43    1
    44    24    25    1
    45    24    44    1
    46    24    45    1
    47    25    46    1
    48    25    47    1
    49    26    27    1
    50    26    48    1
    51    26    49    1
    52    27    50    1
    53    27    51    1
@<TRIPOS>SUBSTRUCTURE
     1 ZINC000986832075        1 TEMP              0 ****  ****    0 ROOT


##########                                Name:    ZINC000854704989
##########                DOCK_Rotatable_Bonds:                   5
##########                         Heavy_Atoms:                  22
##########                    Molecular_Weight:             365.227
##########                DOCK_Rotatable_Bonds:                   5
##########                       Formal_Charge:        -1.78814e-07
##########                     HBond_Acceptors:                   5
##########                        HBond_Donors:                   1
##########                         Heavy_Atoms:                  22
##########                          Grid_Score:          -27.918350
##########                     Grid_vdw_energy:          -26.212696
##########                      Grid_es_energy:           -1.705654
##########           Internal_energy_repulsive:            5.045442

@<TRIPOS>MOLECULE
ZINC000854704989
 39 41 1 0 0
SMALL
USER_CHARGES


@<TRIPOS>ATOM
      1 O1        -10.6044    0.6715   61.6945 O.2     1  ZINC000854704989   -0.5300
      2 C2         -9.6633   -0.0972   61.7256 C.2     1  ZINC000854704989    0.5700
      3 N3         -9.0565   -0.3724   62.8972 N.am    1  ZINC000854704989   -0.7300
      4 C4         -9.5271    0.2597   64.1321 C.3     1  ZINC000854704989    0.2000
      5 C5         -8.3821    0.3753   65.1052 C.2     1  ZINC000854704989   -0.0500
      6 C6         -7.5743    1.4475   65.2823 C.2     1  ZINC000854704989   -0.1700
      7 C7         -6.6803    1.0375   66.2994 C.2     1  ZINC000854704989    0.0000
      8 Br8        -5.2719    2.0537   67.0476 Br      1  ZINC000854704989    0.0600
      9 N9         -7.0202   -0.1789   66.6185 N.2     1  ZINC000854704989   -0.3200
     10 O10        -7.9666   -0.5609   65.9699 O.3     1  ZINC000854704989    0.1300
     11 C11        -9.1883   -0.7351   60.4793 C.ar    1  ZINC000854704989   -0.1300
     12 C12        -7.8247   -0.9552   60.2803 C.ar    1  ZINC000854704989   -0.0900
     13 C13        -7.3881   -1.5514   59.1151 C.ar    1  ZINC000854704989   -0.1200
     14 C14        -8.2987   -1.9302   58.1451 C.ar    1  ZINC000854704989   -0.0900
     15 C15        -9.6523   -1.7147   58.3361 C.ar    1  ZINC000854704989   -0.0800
     16 C16       -10.6370   -2.1307   57.2739 C.3     1  ZINC000854704989   -0.0800
     17 H17       -10.1040   -2.5989   56.4464 H       1  ZINC000854704989    0.0900
     18 C18       -11.3919   -0.8988   56.7650 C.3     1  ZINC000854704989   -0.1100
     19 C19       -12.4429   -1.3438   55.7433 C.3     1  ZINC000854704989   -0.1600
     20 C20       -13.3752   -2.3683   56.3951 C.3     1  ZINC000854704989    0.0600
     21 O21       -12.6061   -3.4735   56.8737 O.3     1  ZINC000854704989   -0.3800
     22 C22       -11.6382   -3.1261   57.8662 C.3     1  ZINC000854704989    0.0700
     23 C23       -10.1024   -1.1249   59.4989 C.ar    1  ZINC000854704989   -0.0500
     24 H24        -8.3080   -0.9888   62.9225 H       1  ZINC000854704989    0.4000
     25 H25        -9.9143    1.2534   63.9070 H       1  ZINC000854704989    0.1100
     26 H26       -10.3181   -0.3474   64.5723 H       1  ZINC000854704989    0.1000
     27 H27        -7.6049    2.3958   64.7665 H       1  ZINC000854704989    0.1900
     28 H28        -7.1128   -0.6593   61.0366 H       1  ZINC000854704989    0.1200
     29 H29        -6.3331   -1.7224   58.9599 H       1  ZINC000854704989    0.1300
     30 H30        -7.9517   -2.3959   57.2344 H       1  ZINC000854704989    0.1300
     31 H31       -11.8837   -0.4015   57.6010 H       1  ZINC000854704989    0.0700
     32 H32       -10.6910   -0.2115   56.2913 H       1  ZINC000854704989    0.0700
     33 H33       -13.0221   -0.4801   55.4169 H       1  ZINC000854704989    0.0800
     34 H34       -11.9473   -1.7967   54.8847 H       1  ZINC000854704989    0.0700
     35 H35       -13.9007   -1.9028   57.2288 H       1  ZINC000854704989    0.0500
     36 H36       -14.0990   -2.7204   55.6600 H       1  ZINC000854704989    0.1000
     37 H37       -11.1119   -4.0238   58.1905 H       1  ZINC000854704989    0.1000
     38 H38       -12.1401   -2.6704   58.7197 H       1  ZINC000854704989    0.0500
     39 H39       -11.1591   -0.9576   59.6470 H       1  ZINC000854704989    0.1400
@<TRIPOS>BOND
     1     1     2    2
     2     2     3   am
     3     2    11    1
     4     3     4    1
     5     3    24    1
     6     4     5    1
     7     4    25    1
     8     4    26    1
     9     5    10    1
    10     5     6    2
    11     6     7    1
    12     6    27    1
    13     7     8    1
    14     7     9    2
    15     9    10    1
    16    11    23   ar
    17    11    12   ar
    18    12    13   ar
    19    12    28    1
    20    13    14   ar
    21    13    29    1
    22    14    15   ar
    23    14    30    1
    24    15    16    1
    25    15    23   ar
    26    16    17    1
    27    16    22    1
    28    16    18    1
    29    18    19    1
    30    18    31    1
    31    18    32    1
    32    19    20    1
    33    19    33    1
    34    19    34    1
    35    20    21    1
    36    20    35    1
    37    20    36    1
    38    21    22    1
    39    22    37    1
    40    22    38    1
    41    23    39    1
@<TRIPOS>SUBSTRUCTURE
     1 ZINC000854704989        1 TEMP              0 ****  ****    0 ROOT


##########                                Name:    ZINC001013196242
##########                DOCK_Rotatable_Bonds:                   5
##########                         Heavy_Atoms:                  24
##########                    Molecular_Weight:              349.86
##########                DOCK_Rotatable_Bonds:                   5
##########                       Formal_Charge:        -3.05474e-07
##########                     HBond_Acceptors:                   6
##########                        HBond_Donors:                   1
##########                         Heavy_Atoms:                  24
##########                          Grid_Score:          -27.905987
##########                     Grid_vdw_energy:          -26.806005
##########                      Grid_es_energy:           -1.099982
##########           Internal_energy_repulsive:           11.379770

@<TRIPOS>MOLECULE
ZINC001013196242
 48 51 1 0 0
SMALL
USER_CHARGES


@<TRIPOS>ATOM
      1 C1        -12.0533   -0.1986   53.5644 C.3     1  ZINC001013196242   -0.1600
      2 C2        -10.9909    0.7755   54.0777 C.3     1  ZINC001013196242    0.1400
      3 H3        -11.4682    1.5946   54.6156 H       1  ZINC001013196242    0.0800
      4 C4        -10.1727    1.3316   52.8933 C.3     1  ZINC001013196242   -0.1400
      5 C5         -8.7319    1.3950   53.4657 C.3     1  ZINC001013196242    0.1300
      6 H6         -8.5828    2.3038   54.0486 H       1  ZINC001013196242    0.1100
      7 N7         -7.7367    1.2915   52.3956 N.am    1  ZINC001013196242   -0.7200
      8 C8         -7.4260    2.3753   51.6572 C.2     1  ZINC001013196242    0.5400
      9 O9         -7.9691    3.4366   51.8798 O.2     1  ZINC001013196242   -0.5200
     10 C10        -6.4037    2.2684   50.5553 C.3     1  ZINC001013196242   -0.1400
     11 C11        -5.3379    3.3779   50.5943 C.3     1  ZINC001013196242   -0.0800
     12 C12        -4.5230    2.4477   51.4995 C.3     1  ZINC001013196242   -0.1600
     13 C13        -3.0500    2.5429   51.8809 C.3     1  ZINC001013196242   -0.1700
     14 C14        -4.1316    2.6450   52.9597 C.3     1  ZINC001013196242   -0.1400
     15 C15        -5.2710    1.2725   50.8607 C.3     1  ZINC001013196242   -0.0800
     16 C16        -8.7031    0.1411   54.3751 C.3     1  ZINC001013196242    0.0800
     17 N17       -10.0551    0.0717   54.9668 N.am    1  ZINC001013196242   -0.6000
     18 C18       -10.3748   -0.5369   56.1259 C.2     1  ZINC001013196242    0.6100
     19 O19       -11.5271   -0.5331   56.5177 O.2     1  ZINC001013196242   -0.5400
     20 C20        -9.3342   -1.2040   56.9154 C.2     1  ZINC001013196242   -0.0400
     21 C21        -9.1502   -2.5652   57.0366 C.2     1  ZINC001013196242   -0.1400
     22 C22        -8.0494   -2.7581   57.8780 C.2     1  ZINC001013196242   -0.1200
     23 Cl23       -7.3885   -4.2886   58.3620 Cl      1  ZINC001013196242   -0.0400
     24 C24        -7.5904   -1.5379   58.2480 C.2     1  ZINC001013196242    0.0400
     25 N25        -8.3599   -0.5851   57.6652 N.pl3   1  ZINC001013196242   -0.4000
     26 C26        -8.1878    0.8620   57.8154 C.3     1  ZINC001013196242    0.0700
     27 H27       -12.6233   -0.5914   54.4064 H       1  ZINC001013196242    0.0700
     28 H28       -12.7251    0.3227   52.8824 H       1  ZINC001013196242    0.0700
     29 H29       -11.5684   -1.0212   53.0386 H       1  ZINC001013196242    0.0600
     30 H30       -10.2194    0.6543   52.0406 H       1  ZINC001013196242    0.0900
     31 H31       -10.5218    2.3264   52.6167 H       1  ZINC001013196242    0.0900
     32 H32        -7.3014    0.4429   52.2185 H       1  ZINC001013196242    0.4000
     33 H33        -6.8540    2.1288   49.5725 H       1  ZINC001013196242    0.1000
     34 H34        -4.8698    3.5686   49.6286 H       1  ZINC001013196242    0.1000
     35 H35        -5.6728    4.2884   51.0912 H       1  ZINC001013196242    0.0700
     36 H36        -2.4601    1.6270   51.8443 H       1  ZINC001013196242    0.1000
     37 H37        -2.5183    3.4559   51.6128 H       1  ZINC001013196242    0.0900
     38 H38        -4.3116    3.6252   53.4012 H       1  ZINC001013196242    0.0900
     39 H39        -4.2534    1.7962   53.6327 H       1  ZINC001013196242    0.1000
     40 H40        -5.5520    0.4951   51.5712 H       1  ZINC001013196242    0.0800
     41 H41        -4.7842    0.8771   49.9691 H       1  ZINC001013196242    0.0900
     42 H42        -8.5001   -0.7517   53.7837 H       1  ZINC001013196242    0.0800
     43 H43        -7.9535    0.2574   55.1578 H       1  ZINC001013196242    0.1000
     44 H44        -9.7444   -3.3371   56.5702 H       1  ZINC001013196242    0.1600
     45 H45        -6.7473   -1.3541   58.8974 H       1  ZINC001013196242    0.1800
     46 H46        -7.5990    1.2463   56.9825 H       1  ZINC001013196242    0.0800
     47 H47        -9.1647    1.3453   57.8232 H       1  ZINC001013196242    0.1000
     48 H48        -7.6714    1.0712   58.7523 H       1  ZINC001013196242    0.0900
@<TRIPOS>BOND
     1     1     2    1
     2     1    27    1
     3     1    28    1
     4     1    29    1
     5     2     3    1
     6     2    17    1
     7     2     4    1
     8     4     5    1
     9     4    30    1
    10     4    31    1
    11     5     6    1
    12     5     7    1
    13     5    16    1
    14     7     8   am
    15     7    32    1
    16     8     9    2
    17     8    10    1
    18    10    15    1
    19    10    11    1
    20    10    33    1
    21    11    12    1
    22    11    34    1
    23    11    35    1
    24    12    14    1
    25    12    13    1
    26    12    15    1
    27    13    14    1
    28    13    36    1
    29    13    37    1
    30    14    38    1
    31    14    39    1
    32    15    40    1
    33    15    41    1
    34    16    17    1
    35    16    42    1
    36    16    43    1
    37    17    18   am
    38    18    19    2
    39    18    20    1
    40    20    25    1
    41    20    21    2
    42    21    22    1
    43    21    44    1
    44    22    23    1
    45    22    24    2
    46    24    25    1
    47    24    45    1
    48    25    26    1
    49    26    46    1
    50    26    47    1
    51    26    48    1
@<TRIPOS>SUBSTRUCTURE
     1 ZINC001013196242        1 TEMP              0 ****  ****    0 ROOT


##########                                Name:    ZINC000277085192
##########                DOCK_Rotatable_Bonds:                   4
##########                         Heavy_Atoms:                  23
##########                    Molecular_Weight:             335.747
##########                DOCK_Rotatable_Bonds:                   4
##########                       Formal_Charge:         5.96046e-08
##########                     HBond_Acceptors:                   8
##########                        HBond_Donors:                   2
##########                         Heavy_Atoms:                  23
##########                          Grid_Score:          -27.901651
##########                     Grid_vdw_energy:          -25.132593
##########                      Grid_es_energy:           -2.769058
##########           Internal_energy_repulsive:            4.313797

@<TRIPOS>MOLECULE
ZINC000277085192
 37 39 1 0 0
SMALL
USER_CHARGES


@<TRIPOS>ATOM
      1 O1         -9.9428    1.2200   59.6003 O.2     1  ZINC000277085192   -0.5000
      2 C2         -9.1821    0.7265   60.4059 C.2     1  ZINC000277085192    0.5000
      3 C3         -8.3211    1.6118   61.2696 C.3     1  ZINC000277085192    0.1100
      4 N4         -8.6520    1.3897   62.6793 N.am    1  ZINC000277085192   -0.6000
      5 C5         -7.9061    0.3909   63.4471 C.3     1  ZINC000277085192    0.1100
      6 C6         -7.7258    0.8815   64.8855 C.3     1  ZINC000277085192   -0.1600
      7 C7         -9.0447    1.3999   65.4012 C.2     1  ZINC000277085192    0.5200
      8 O8         -9.3360    1.2605   66.5697 O.2     1  ZINC000277085192   -0.5000
      9 N9         -9.8978    2.0177   64.5638 N.am    1  ZINC000277085192   -0.6700
     10 C10        -9.6316    2.1090   63.2507 C.2     1  ZINC000277085192    0.7200
     11 O11       -10.2991    2.8542   62.5605 O.2     1  ZINC000277085192   -0.5500
     12 N12        -9.1110   -0.6133   60.5327 N.am    1  ZINC000277085192   -0.6700
     13 C13        -9.9110   -1.4359   59.7303 C.ar    1  ZINC000277085192    0.1400
     14 C14       -11.2133   -1.7107   60.1043 C.ar    1  ZINC000277085192   -0.0400
     15 C15       -12.0156   -2.5357   59.3007 C.ar    1  ZINC000277085192   -0.1700
     16 C16       -11.4866   -3.0721   58.1263 C.ar    1  ZINC000277085192   -0.0500
     17 C17       -10.1833   -2.7899   57.7625 C.ar    1  ZINC000277085192   -0.0900
     18 C18        -9.3970   -1.9725   58.5535 C.ar    1  ZINC000277085192   -0.0300
     19 Cl19       -7.7616   -1.6261   58.0851 Cl      1  ZINC000277085192   -0.0500
     20 C20       -12.5329   -3.9180   57.4403 C.3     1  ZINC000277085192   -0.0800
     21 C21       -13.7870   -3.8517   58.3226 C.3     1  ZINC000277085192   -0.1700
     22 C22       -13.4107   -2.9667   59.4858 C.2     1  ZINC000277085192    0.4100
     23 O23       -14.1324   -2.6631   60.4118 O.2     1  ZINC000277085192   -0.4300
     24 H24        -7.2709    1.3735   61.1009 H       1  ZINC000277085192    0.1300
     25 H25        -8.5023    2.6559   61.0140 H       1  ZINC000277085192    0.1200
     26 H26        -8.4565   -0.5499   63.4506 H       1  ZINC000277085192    0.0800
     27 H27        -6.9283    0.2376   62.9904 H       1  ZINC000277085192    0.1000
     28 H28        -7.3887    0.0560   65.5124 H       1  ZINC000277085192    0.1300
     29 H29        -6.9863    1.6820   64.9072 H       1  ZINC000277085192    0.1200
     30 H30       -10.7148    2.4056   64.9146 H       1  ZINC000277085192    0.4300
     31 H31        -8.5055   -1.0078   61.1797 H       1  ZINC000277085192    0.4200
     32 H32       -11.6134   -1.2907   61.0153 H       1  ZINC000277085192    0.1500
     33 H33        -9.7777   -3.2074   56.8528 H       1  ZINC000277085192    0.1500
     34 H34       -12.7496   -3.5156   56.4507 H       1  ZINC000277085192    0.1000
     35 H35       -12.1866   -4.9482   57.3585 H       1  ZINC000277085192    0.1000
     36 H36       -14.6164   -3.4135   57.7674 H       1  ZINC000277085192    0.1100
     37 H37       -14.0527   -4.8479   58.6764 H       1  ZINC000277085192    0.1100
@<TRIPOS>BOND
     1     1     2    2
     2     2     3    1
     3     2    12   am
     4     3     4    1
     5     3    24    1
     6     3    25    1
     7     4    10   am
     8     4     5    1
     9     5     6    1
    10     5    26    1
    11     5    27    1
    12     6     7    1
    13     6    28    1
    14     6    29    1
    15     7     8    2
    16     7     9   am
    17     9    10   am
    18     9    30    1
    19    10    11    2
    20    12    13    1
    21    12    31    1
    22    13    18   ar
    23    13    14   ar
    24    14    15   ar
    25    14    32    1
    26    15    22    1
    27    15    16   ar
    28    16    17   ar
    29    16    20    1
    30    17    18   ar
    31    17    33    1
    32    18    19    1
    33    20    21    1
    34    20    34    1
    35    20    35    1
    36    21    22    1
    37    21    36    1
    38    21    37    1
    39    22    23    2
@<TRIPOS>SUBSTRUCTURE
     1 ZINC000277085192        1 TEMP              0 ****  ****    0 ROOT


##########                                Name:    ZINC001191386213
##########                DOCK_Rotatable_Bonds:                   6
##########                         Heavy_Atoms:                  29
##########                    Molecular_Weight:             392.433
##########                DOCK_Rotatable_Bonds:                   6
##########                       Formal_Charge:               -0.02
##########                     HBond_Acceptors:                   7
##########                        HBond_Donors:                   2
##########                         Heavy_Atoms:                  29
##########                          Grid_Score:          -27.901173
##########                     Grid_vdw_energy:          -28.485937
##########                      Grid_es_energy:            0.584765
##########           Internal_energy_repulsive:           10.233054

@<TRIPOS>MOLECULE
ZINC001191386213
 50 53 1 0 0
SMALL
USER_CHARGES


@<TRIPOS>ATOM
      1 C1         -2.6555    2.6033   47.8809 C.3     1  ZINC001191386213   -0.1700
      2 C2         -3.6783    2.4010   48.9690 C.2     1  ZINC001191386213    0.5100
      3 O3         -3.6508    1.3963   49.6479 O.2     1  ZINC001191386213   -0.5200
      4 N4         -4.6236    3.3364   49.1878 N.am    1  ZINC001191386213   -0.6800
      5 C5         -5.5734    3.1485   50.1982 C.ar    1  ZINC001191386213    0.1400
      6 C6         -6.9085    2.9507   49.8688 C.ar    1  ZINC001191386213   -0.1400
      7 C7         -7.8491    2.7644   50.8641 C.ar    1  ZINC001191386213   -0.1000
      8 C8         -7.4674    2.7741   52.1908 C.ar    1  ZINC001191386213   -0.1100
      9 C9         -6.1303    2.9722   52.5302 C.ar    1  ZINC001191386213    0.0100
     10 C10        -5.7183    2.9829   53.9564 C.2     1  ZINC001191386213    0.0700
     11 N11        -4.4960    2.8114   54.4142 N.2     1  ZINC001191386213   -0.2500
     12 N12        -4.4760    2.8772   55.6964 N.pl3   1  ZINC001191386213   -0.3800
     13 C13        -5.7376    3.1051   56.1698 C.2     1  ZINC001191386213   -0.0400
     14 C14        -6.1379    3.2460   57.5792 C.2     1  ZINC001191386213    0.6100
     15 O15        -5.7472    4.1961   58.2304 O.2     1  ZINC001191386213   -0.5100
     16 N16        -6.9376    2.3222   58.1482 N.am    1  ZINC001191386213   -0.6200
     17 C17        -7.4119    2.3397   59.5396 C.3     1  ZINC001191386213    0.0800
     18 C18        -8.2735    1.0760   59.7460 C.3     1  ZINC001191386213   -0.1200
     19 C19        -7.7728    0.1273   58.6249 C.3     1  ZINC001191386213   -0.0600
     20 H20        -6.8645   -0.3924   58.9296 H       1  ZINC001191386213    0.1000
     21 C21        -8.8458   -0.8536   58.2283 C.ar    1  ZINC001191386213   -0.1100
     22 C22       -10.1129   -0.4018   57.9126 C.ar    1  ZINC001191386213   -0.0900
     23 C23       -11.0977   -1.3016   57.5488 C.ar    1  ZINC001191386213   -0.1300
     24 C24       -10.8161   -2.6540   57.5008 C.ar    1  ZINC001191386213   -0.0900
     25 C25        -9.5494   -3.1083   57.8165 C.ar    1  ZINC001191386213   -0.1500
     26 C26        -8.5609   -2.2078   58.1745 C.ar    1  ZINC001191386213    0.1100
     27 F27        -7.3225   -2.6507   58.4835 F       1  ZINC001191386213   -0.1400
     28 C28        -7.4867    1.1302   57.4765 C.3     1  ZINC001191386213    0.1200
     29 C29        -6.5622    3.1842   55.0638 C.2     1  ZINC001191386213   -0.1300
     30 C30        -5.1813    3.1538   51.5285 C.ar    1  ZINC001191386213   -0.1000
     31 H31        -1.9794    1.7488   47.8544 H       1  ZINC001191386213    0.1000
     32 H32        -3.1612    2.6966   46.9198 H       1  ZINC001191386213    0.0900
     33 H33        -2.0863    3.5109   48.0815 H       1  ZINC001191386213    0.0900
     34 H34        -4.6456    4.1400   48.6449 H       1  ZINC001191386213    0.4100
     35 H35        -7.2121    2.9431   48.8324 H       1  ZINC001191386213    0.1300
     36 H36        -8.8859    2.6110   50.6033 H       1  ZINC001191386213    0.1300
     37 H37        -8.2052    2.6285   52.9659 H       1  ZINC001191386213    0.1300
     38 H38        -3.6835    2.7791   56.2472 H       1  ZINC001191386213    0.4400
     39 H39        -6.5616    2.3240   60.2214 H       1  ZINC001191386213    0.0700
     40 H40        -8.0138    3.2313   59.7150 H       1  ZINC001191386213    0.0800
     41 H41        -8.0913    0.6414   60.7288 H       1  ZINC001191386213    0.0900
     42 H42        -9.3310    1.3046   59.6141 H       1  ZINC001191386213    0.0900
     43 H43       -10.3343    0.6547   57.9505 H       1  ZINC001191386213    0.1300
     44 H44       -12.0877   -0.9476   57.3022 H       1  ZINC001191386213    0.1300
     45 H45       -11.5861   -3.3560   57.2167 H       1  ZINC001191386213    0.1300
     46 H46        -9.3298   -4.1651   57.7796 H       1  ZINC001191386213    0.1400
     47 H47        -8.4083    1.3763   56.9492 H       1  ZINC001191386213    0.0800
     48 H48        -6.7522    0.7163   56.7856 H       1  ZINC001191386213    0.0900
     49 H49        -7.6282    3.3570   55.0523 H       1  ZINC001191386213    0.1700
     50 H50        -4.1439    3.3078   51.7868 H       1  ZINC001191386213    0.1500
@<TRIPOS>BOND
     1     1     2    1
     2     1    31    1
     3     1    32    1
     4     1    33    1
     5     2     3    2
     6     2     4   am
     7     4     5    1
     8     4    34    1
     9     5    30   ar
    10     5     6   ar
    11     6     7   ar
    12     6    35    1
    13     7     8   ar
    14     7    36    1
    15     8     9   ar
    16     8    37    1
    17     9    10    1
    18     9    30   ar
    19    10    29    1
    20    10    11    2
    21    11    12    1
    22    12    13    1
    23    12    38    1
    24    13    14    1
    25    13    29    2
    26    14    15    2
    27    14    16   am
    28    16    28    1
    29    16    17    1
    30    17    18    1
    31    17    39    1
    32    17    40    1
    33    18    19    1
    34    18    41    1
    35    18    42    1
    36    19    20    1
    37    19    21    1
    38    19    28    1
    39    21    26   ar
    40    21    22   ar
    41    22    23   ar
    42    22    43    1
    43    23    24   ar
    44    23    44    1
    45    24    25   ar
    46    24    45    1
    47    25    26   ar
    48    25    46    1
    49    26    27    1
    50    28    47    1
    51    28    48    1
    52    29    49    1
    53    30    50    1
@<TRIPOS>SUBSTRUCTURE
     1 ZINC001191386213        1 TEMP              0 ****  ****    0 ROOT


##########                                Name:    ZINC000648570180
##########                DOCK_Rotatable_Bonds:                   4
##########                         Heavy_Atoms:                  25
##########                    Molecular_Weight:             342.484
##########                DOCK_Rotatable_Bonds:                   4
##########                       Formal_Charge:          0.00999971
##########                     HBond_Acceptors:                   5
##########                        HBond_Donors:                   0
##########                         Heavy_Atoms:                  25
##########                          Grid_Score:          -27.887598
##########                     Grid_vdw_energy:          -28.360945
##########                      Grid_es_energy:            0.473346
##########           Internal_energy_repulsive:           79.394913

@<TRIPOS>MOLECULE
ZINC000648570180
 55 58 1 0 0
SMALL
USER_CHARGES


@<TRIPOS>ATOM
      1 C1         -5.9335    2.4767   53.7824 C.3     1  ZINC000648570180   -0.1500
      2 C2         -7.3450    2.3756   53.2005 C.3     1  ZINC000648570180   -0.0600
      3 C3         -7.8517    3.7659   52.8115 C.3     1  ZINC000648570180   -0.1400
      4 C4         -7.3433    1.4484   51.9676 C.3     1  ZINC000648570180   -0.1200
      5 C5         -8.6888    0.6872   52.0630 C.3     1  ZINC000648570180   -0.1300
      6 C6         -8.8369    0.4444   53.5856 C.3     1  ZINC000648570180   -0.1200
      7 C7         -8.2946    1.7373   54.2293 C.3     1  ZINC000648570180   -0.0700
      8 H8         -9.1171    2.4176   54.4507 H       1  ZINC000648570180    0.0800
      9 C9         -7.5312    1.4036   55.5125 C.3     1  ZINC000648570180   -0.1000
     10 H10        -6.5496    0.9884   55.2839 H       1  ZINC000648570180    0.1000
     11 C11        -7.4082    2.6511   56.4269 C.3     1  ZINC000648570180   -0.1400
     12 C12        -7.2775    2.0353   57.8359 C.3     1  ZINC000648570180    0.1200
     13 N13        -7.8483    0.6817   57.7754 N.am    1  ZINC000648570180   -0.6000
     14 C14        -7.9066   -0.1926   58.7994 C.2     1  ZINC000648570180    0.5800
     15 O15        -7.4640    0.1161   59.8877 O.2     1  ZINC000648570180   -0.5200
     16 C16        -8.5120   -1.5331   58.5973 C.ar    1  ZINC000648570180    0.1600
     17 C17        -7.7212   -2.6169   58.2164 C.ar    1  ZINC000648570180   -0.2000
     18 C18        -8.3320   -3.8509   58.0400 C.ar    1  ZINC000648570180    0.1800
     19 N19        -9.6337   -3.9607   58.2366 N.ar    1  ZINC000648570180   -0.5400
     20 C20       -10.3597   -2.9119   58.5985 C.ar    1  ZINC000648570180    0.4800
     21 N21       -11.7210   -3.0696   58.7944 N.3     1  ZINC000648570180   -0.4400
     22 C22       -12.1172   -2.6306   60.1570 C.3     1  ZINC000648570180    0.0500
     23 C23       -13.6391   -2.3750   60.0185 C.3     1  ZINC000648570180   -0.1200
     24 C24       -13.7598   -1.7651   58.6031 C.3     1  ZINC000648570180   -0.1300
     25 C25       -12.4927   -2.2239   57.8580 C.3     1  ZINC000648570180    0.0400
     26 N26        -9.8165   -1.7200   58.7822 N.ar    1  ZINC000648570180   -0.5000
     27 C27        -8.3468    0.4389   56.4090 C.3     1  ZINC000648570180    0.1100
     28 H28        -5.6243    1.5010   54.1571 H       1  ZINC000648570180    0.0600
     29 H29        -5.2426    2.8029   53.0049 H       1  ZINC000648570180    0.0500
     30 H30        -5.9281    3.1981   54.5994 H       1  ZINC000648570180    0.0700
     31 H31        -7.1795    4.2044   52.0739 H       1  ZINC000648570180    0.0500
     32 H32        -8.8521    3.6822   52.3868 H       1  ZINC000648570180    0.0500
     33 H33        -7.8846    4.4015   53.6963 H       1  ZINC000648570180    0.0500
     34 H34        -7.3008    2.0346   51.0496 H       1  ZINC000648570180    0.0600
     35 H35        -6.5064    0.7517   52.0155 H       1  ZINC000648570180    0.0700
     36 H36        -9.5076    1.3013   51.6882 H       1  ZINC000648570180    0.0700
     37 H37        -8.6362   -0.2590   51.5244 H       1  ZINC000648570180    0.0700
     38 H38        -9.8846    0.2979   53.8484 H       1  ZINC000648570180    0.0700
     39 H39        -8.2414   -0.4144   53.8947 H       1  ZINC000648570180    0.0700
     40 H40        -6.5188    3.2283   56.1742 H       1  ZINC000648570180    0.0900
     41 H41        -8.3031    3.2695   56.3578 H       1  ZINC000648570180    0.0800
     42 H42        -6.2268    1.9821   58.1211 H       1  ZINC000648570180    0.0800
     43 H43        -7.8294    2.6385   58.5567 H       1  ZINC000648570180    0.0700
     44 H44        -6.6588   -2.4988   58.0621 H       1  ZINC000648570180    0.1600
     45 H45        -7.7498   -4.7113   57.7450 H       1  ZINC000648570180    0.1800
     46 H46       -11.9239   -3.4175   60.8860 H       1  ZINC000648570180    0.1000
     47 H47       -11.5964   -1.7135   60.4322 H       1  ZINC000648570180    0.0500
     48 H48       -14.1948   -3.3103   60.0842 H       1  ZINC000648570180    0.0800
     49 H49       -13.9816   -1.6677   60.7738 H       1  ZINC000648570180    0.0800
     50 H50       -14.6510   -2.1439   58.1027 H       1  ZINC000648570180    0.0800
     51 H51       -13.7914   -0.6771   58.6614 H       1  ZINC000648570180    0.0700
     52 H52       -11.8997   -1.3574   57.5654 H       1  ZINC000648570180    0.0900
     53 H53       -12.7691   -2.8027   56.9767 H       1  ZINC000648570180    0.0900
     54 H54        -9.4099    0.6714   56.3462 H       1  ZINC000648570180    0.0700
     55 H55        -8.1662   -0.5957   56.1175 H       1  ZINC000648570180    0.0800
@<TRIPOS>BOND
     1     1     2    1
     2     1    28    1
     3     1    29    1
     4     1    30    1
     5     2     7    1
     6     2     3    1
     7     2     4    1
     8     3    31    1
     9     3    32    1
    10     3    33    1
    11     4     5    1
    12     4    34    1
    13     4    35    1
    14     5     6    1
    15     5    36    1
    16     5    37    1
    17     6     7    1
    18     6    38    1
    19     6    39    1
    20     7     8    1
    21     7     9    1
    22     9    10    1
    23     9    27    1
    24     9    11    1
    25    11    12    1
    26    11    40    1
    27    11    41    1
    28    12    13    1
    29    12    42    1
    30    12    43    1
    31    13    14   am
    32    13    27    1
    33    14    15    2
    34    14    16    1
    35    16    26   ar
    36    16    17   ar
    37    17    18   ar
    38    17    44    1
    39    18    19   ar
    40    18    45    1
    41    19    20   ar
    42    20    21    1
    43    20    26   ar
    44    21    25    1
    45    21    22    1
    46    22    23    1
    47    22    46    1
    48    22    47    1
    49    23    24    1
    50    23    48    1
    51    23    49    1
    52    24    25    1
    53    24    50    1
    54    24    51    1
    55    25    52    1
    56    25    53    1
    57    27    54    1
    58    27    55    1
@<TRIPOS>SUBSTRUCTURE
     1 ZINC000648570180        1 TEMP              0 ****  ****    0 ROOT


##########                                Name:    ZINC000330515179
##########                DOCK_Rotatable_Bonds:                   4
##########                         Heavy_Atoms:                  21
##########                    Molecular_Weight:             378.287
##########                DOCK_Rotatable_Bonds:                   4
##########                       Formal_Charge:           0.0200002
##########                     HBond_Acceptors:                   6
##########                        HBond_Donors:                   0
##########                         Heavy_Atoms:                  21
##########                          Grid_Score:          -27.882650
##########                     Grid_vdw_energy:          -27.212610
##########                      Grid_es_energy:           -0.670041
##########           Internal_energy_repulsive:            6.263194

@<TRIPOS>MOLECULE
ZINC000330515179
 41 42 1 0 0
SMALL
USER_CHARGES


@<TRIPOS>ATOM
      1 C1         -8.4399   -5.5559   58.5240 C.3     1  ZINC000330515179    0.0300
      2 O2         -8.7103   -4.5883   57.5077 O.3     1  ZINC000330515179   -0.3800
      3 C3         -8.6752   -3.2361   57.9685 C.3     1  ZINC000330515179    0.0700
      4 C4        -10.0489   -2.8496   58.5203 C.3     1  ZINC000330515179    0.0800
      5 H5        -10.2299   -3.3833   59.4533 H       1  ZINC000330515179    0.0800
      6 C6        -11.1326   -3.2190   57.5007 C.3     1  ZINC000330515179    0.0900
      7 N7        -12.4158   -2.6711   57.9684 N.am    1  ZINC000330515179   -1.0000
      8 S8        -13.7675   -3.6237   58.0577 S.o2    1  ZINC000330515179    2.6900
      9 O9        -13.4171   -4.8727   57.4775 O.2     1  ZINC000330515179   -0.9400
     10 O10       -14.2629   -3.4941   59.3832 O.2     1  ZINC000330515179   -0.9500
     11 C11       -14.9813   -2.9071   57.0006 C.ar    1  ZINC000330515179   -0.6700
     12 C12       -16.2843   -2.7663   57.4405 C.ar    1  ZINC000330515179   -0.0100
     13 C13       -17.2368   -2.2038   56.6117 C.ar    1  ZINC000330515179   -0.1100
     14 C14       -16.8860   -1.7817   55.3420 C.ar    1  ZINC000330515179   -0.0400
     15 Br15      -18.1885   -1.0114   54.2079 Br      1  ZINC000330515179   -0.0300
     16 C16       -15.5822   -1.9227   54.9022 C.ar    1  ZINC000330515179   -0.1100
     17 C17       -14.6292   -2.4805   55.7336 C.ar    1  ZINC000330515179   -0.0100
     18 C18       -12.4625   -1.2518   58.3538 C.3     1  ZINC000330515179    0.1000
     19 C19       -11.3141   -0.9783   59.3317 C.3     1  ZINC000330515179    0.1000
     20 C20       -11.2179    0.5250   59.5995 C.3     1  ZINC000330515179   -0.1400
     21 C21       -11.5758   -1.7158   60.6464 C.3     1  ZINC000330515179   -0.1800
     22 O22       -10.0879   -1.4409   58.7605 O.3     1  ZINC000330515179   -0.3500
     23 H23        -8.4853   -6.5566   58.0943 H       1  ZINC000330515179    0.0900
     24 H24        -7.4457   -5.3822   58.9358 H       1  ZINC000330515179    0.0400
     25 H25        -9.1824   -5.4670   59.3171 H       1  ZINC000330515179    0.0400
     26 H26        -7.9274   -3.1398   58.7556 H       1  ZINC000330515179    0.0600
     27 H27        -8.4177   -2.5765   57.1400 H       1  ZINC000330515179    0.0700
     28 H28       -10.8834   -2.7922   56.5293 H       1  ZINC000330515179    0.0900
     29 H29       -11.2047   -4.3035   57.4182 H       1  ZINC000330515179    0.1000
     30 H30       -16.5582   -3.0964   58.4317 H       1  ZINC000330515179    0.1500
     31 H31       -18.2548   -2.0943   56.9553 H       1  ZINC000330515179    0.1500
     32 H32       -15.3078   -1.5932   53.9111 H       1  ZINC000330515179    0.1500
     33 H33       -13.6111   -2.5906   55.3904 H       1  ZINC000330515179    0.1500
     34 H34       -12.3472   -0.6269   57.4682 H       1  ZINC000330515179    0.0900
     35 H35       -13.4153   -1.0335   58.8362 H       1  ZINC000330515179    0.1000
     36 H36       -12.1544    0.8777   60.0315 H       1  ZINC000330515179    0.0800
     37 H37       -10.4012    0.7187   60.2948 H       1  ZINC000330515179    0.0700
     38 H38       -11.0297    1.0496   58.6627 H       1  ZINC000330515179    0.0700
     39 H39       -11.6424   -2.7869   60.4552 H       1  ZINC000330515179    0.0600
     40 H40       -10.7589   -1.5209   61.3412 H       1  ZINC000330515179    0.0700
     41 H41       -12.5126   -1.3651   61.0795 H       1  ZINC000330515179    0.0700
@<TRIPOS>BOND
     1     1     2    1
     2     1    23    1
     3     1    24    1
     4     1    25    1
     5     2     3    1
     6     3     4    1
     7     3    26    1
     8     3    27    1
     9     4     5    1
    10     4    22    1
    11     4     6    1
    12     6     7    1
    13     6    28    1
    14     6    29    1
    15     7     8   am
    16     7    18    1
    17     8     9    2
    18     8    10    2
    19     8    11    1
    20    11    17   ar
    21    11    12   ar
    22    12    13   ar
    23    12    30    1
    24    13    14   ar
    25    13    31    1
    26    14    15    1
    27    14    16   ar
    28    16    17   ar
    29    16    32    1
    30    17    33    1
    31    18    19    1
    32    18    34    1
    33    18    35    1
    34    19    20    1
    35    19    21    1
    36    19    22    1
    37    20    36    1
    38    20    37    1
    39    20    38    1
    40    21    39    1
    41    21    40    1
    42    21    41    1
@<TRIPOS>SUBSTRUCTURE
     1 ZINC000330515179        1 TEMP              0 ****  ****    0 ROOT


##########                                Name:    ZINC000888733009
##########                DOCK_Rotatable_Bonds:                   6
##########                         Heavy_Atoms:                  25
##########                    Molecular_Weight:             360.434
##########                DOCK_Rotatable_Bonds:                   6
##########                       Formal_Charge:        -1.02073e-06
##########                     HBond_Acceptors:                   7
##########                        HBond_Donors:                   2
##########                         Heavy_Atoms:                  25
##########                          Grid_Score:          -27.875412
##########                     Grid_vdw_energy:          -27.466209
##########                      Grid_es_energy:           -0.409202
##########           Internal_energy_repulsive:            4.233459

@<TRIPOS>MOLECULE
ZINC000888733009
 45 48 1 0 0
SMALL
USER_CHARGES


@<TRIPOS>ATOM
      1 C1        -18.6120   -1.8295   57.7159 C.3     1  ZINC000888733009   -0.1500
      2 C2        -17.3465   -1.5893   56.8902 C.3     1  ZINC000888733009    0.0700
      3 H3        -17.5426   -1.7752   55.8343 H       1  ZINC000888733009    0.0700
      4 C4        -16.1964   -2.4951   57.3919 C.3     1  ZINC000888733009   -0.1300
      5 C5        -14.9529   -1.6049   57.2641 C.3     1  ZINC000888733009   -0.1100
      6 C6        -14.0680   -1.5165   58.5049 C.3     1  ZINC000888733009   -0.1300
      7 C7        -12.8683   -1.4962   57.5397 C.3     1  ZINC000888733009    0.1200
      8 N8        -11.7352   -2.3048   57.9962 N.am    1  ZINC000888733009   -0.7100
      9 C9        -10.5464   -2.2149   57.3675 C.2     1  ZINC000888733009    0.5900
     10 O10       -10.4139   -1.4607   56.4215 O.2     1  ZINC000888733009   -0.5600
     11 C11        -9.4131   -3.0253   57.8232 C.2     1  ZINC000888733009   -0.2400
     12 C12        -8.1313   -2.5486   57.9242 C.2     1  ZINC000888733009    0.0800
     13 N13        -7.7451   -1.2554   57.6132 N.am    1  ZINC000888733009   -0.6100
     14 C14        -7.4318   -0.3903   58.5981 C.2     1  ZINC000888733009    0.6000
     15 O15        -7.4869   -0.7460   59.7607 O.2     1  ZINC000888733009   -0.4900
     16 C16        -7.0247    0.9789   58.2690 C.2     1  ZINC000888733009   -0.0900
     17 C17        -6.9161    2.0175   59.1494 C.2     1  ZINC000888733009   -0.1000
     18 C18        -6.5003    3.1338   58.4071 C.2     1  ZINC000888733009   -0.2300
     19 C19        -6.3749    2.7331   57.1226 C.2     1  ZINC000888733009    0.0100
     20 O20        -6.6862    1.4328   57.0444 O.3     1  ZINC000888733009   -0.1600
     21 S21        -7.0787   -3.7661   58.4855 S.3     1  ZINC000888733009    0.3000
     22 C22        -8.3736   -4.9455   58.5911 C.2     1  ZINC000888733009   -0.2800
     23 C23        -9.5284   -4.4115   58.2201 C.2     1  ZINC000888733009   -0.0900
     24 C24       -13.7691   -2.2180   56.5205 C.3     1  ZINC000888733009   -0.1400
     25 C25       -15.4692   -0.2686   56.7144 C.3     1  ZINC000888733009    0.0700
     26 O26       -16.8691   -0.2390   57.0829 O.3     1  ZINC000888733009   -0.3700
     27 H27       -19.4039   -1.1658   57.3685 H       1  ZINC000888733009    0.0600
     28 H28       -18.9297   -2.8657   57.6008 H       1  ZINC000888733009    0.0700
     29 H29       -18.4039   -1.6279   58.7667 H       1  ZINC000888733009    0.0600
     30 H30       -16.3585   -2.7803   58.4314 H       1  ZINC000888733009    0.0800
     31 H31       -16.1016   -3.3790   56.7611 H       1  ZINC000888733009    0.0800
     32 H32       -14.1933   -0.5910   59.0668 H       1  ZINC000888733009    0.0800
     33 H33       -14.1079   -2.4051   59.1349 H       1  ZINC000888733009    0.0900
     34 H34       -12.5745   -0.4932   57.2304 H       1  ZINC000888733009    0.1200
     35 H35       -11.8405   -2.9050   58.7510 H       1  ZINC000888733009    0.4000
     36 H36        -7.7001   -0.9723   56.6865 H       1  ZINC000888733009    0.4400
     37 H37        -7.1124    1.9860   60.2109 H       1  ZINC000888733009    0.1700
     38 H38        -6.3156    4.1265   58.7904 H       1  ZINC000888733009    0.1600
     39 H39        -6.0696    3.3575   56.2960 H       1  ZINC000888733009    0.2200
     40 H40        -8.2473   -5.9670   58.9181 H       1  ZINC000888733009    0.1700
     41 H41       -10.4598   -4.9582   58.2076 H       1  ZINC000888733009    0.1500
     42 H42       -13.7245   -3.3049   56.5895 H       1  ZINC000888733009    0.0900
     43 H43       -13.6561   -1.8517   55.5001 H       1  ZINC000888733009    0.0800
     44 H44       -14.9364    0.5634   57.1747 H       1  ZINC000888733009    0.0900
     45 H45       -15.3624   -0.2367   55.6301 H       1  ZINC000888733009    0.0700
@<TRIPOS>BOND
     1     1     2    1
     2     1    27    1
     3     1    28    1
     4     1    29    1
     5     2     3    1
     6     2    26    1
     7     2     4    1
     8     4     5    1
     9     4    30    1
    10     4    31    1
    11     5    24    1
    12     5     6    1
    13     5    25    1
    14     6     7    1
    15     6    32    1
    16     6    33    1
    17     7     8    1
    18     7    24    1
    19     7    34    1
    20     8     9   am
    21     8    35    1
    22     9    10    2
    23     9    11    1
    24    11    23    1
    25    11    12    2
    26    12    13    1
    27    12    21    1
    28    13    14   am
    29    13    36    1
    30    14    15    2
    31    14    16    1
    32    16    20    1
    33    16    17    2
    34    17    18    1
    35    17    37    1
    36    18    19    2
    37    18    38    1
    38    19    20    1
    39    19    39    1
    40    21    22    1
    41    22    23    2
    42    22    40    1
    43    23    41    1
    44    24    42    1
    45    24    43    1
    46    25    26    1
    47    25    44    1
    48    25    45    1
@<TRIPOS>SUBSTRUCTURE
     1 ZINC000888733009        1 TEMP              0 ****  ****    0 ROOT


##########                                Name:    ZINC000028372981
##########                DOCK_Rotatable_Bonds:                   7
##########                         Heavy_Atoms:                  28
##########                    Molecular_Weight:             380.443
##########                DOCK_Rotatable_Bonds:                   7
##########                       Formal_Charge:         1.78814e-07
##########                     HBond_Acceptors:                   6
##########                        HBond_Donors:                   1
##########                         Heavy_Atoms:                  28
##########                          Grid_Score:          -27.865038
##########                     Grid_vdw_energy:          -25.150658
##########                      Grid_es_energy:           -2.714381
##########           Internal_energy_repulsive:           14.963899

@<TRIPOS>MOLECULE
ZINC000028372981
 52 54 1 0 0
SMALL
USER_CHARGES


@<TRIPOS>ATOM
      1 C1         -8.4913    3.3568   63.0645 C.3     1  ZINC000028372981   -0.1800
      2 C2         -9.6592    2.4842   62.6828 C.2     1  ZINC000028372981    0.5200
      3 O3        -10.7787    2.7763   63.0465 O.2     1  ZINC000028372981   -0.5100
      4 N4         -9.4596    1.3792   61.9375 N.am    1  ZINC000028372981   -0.5500
      5 C5         -8.1577    0.9272   61.4401 C.3     1  ZINC000028372981    0.1000
      6 C6         -8.4511   -0.3609   60.6537 C.3     1  ZINC000028372981   -0.0900
      7 C7         -9.9479   -0.5440   60.7713 C.ar    1  ZINC000028372981   -0.1500
      8 C8        -10.7772   -1.5243   60.2744 C.ar    1  ZINC000028372981    0.0000
      9 C9        -12.1521   -1.4682   60.5204 C.ar    1  ZINC000028372981   -0.1600
     10 C10       -13.0456   -2.5126   59.9862 C.2     1  ZINC000028372981    0.5200
     11 O11       -13.7034   -3.1960   60.7457 O.2     1  ZINC000028372981   -0.5000
     12 O12       -13.1327   -2.7092   58.6561 O.3     1  ZINC000028372981   -0.3200
     13 C13       -14.1156   -1.9195   57.9359 C.3     1  ZINC000028372981    0.0700
     14 H14       -14.2436   -0.9578   58.4328 H       1  ZINC000028372981    0.1200
     15 C15       -15.4518   -2.6644   57.9144 C.3     1  ZINC000028372981   -0.1700
     16 C16       -13.6424   -1.6957   56.5227 C.2     1  ZINC000028372981    0.5200
     17 O17       -13.8438   -2.5394   55.6750 O.2     1  ZINC000028372981   -0.4900
     18 N18       -12.9955   -0.5580   56.2008 N.am    1  ZINC000028372981   -0.6600
     19 C19       -12.5562   -0.3502   54.8887 C.ar    1  ZINC000028372981    0.1500
     20 C20       -13.4783   -0.1607   53.8680 C.ar    1  ZINC000028372981   -0.1300
     21 C21       -13.0414    0.0446   52.5738 C.ar    1  ZINC000028372981   -0.1000
     22 C22       -11.6874    0.0621   52.2943 C.ar    1  ZINC000028372981   -0.1300
     23 C23       -10.7664   -0.1258   53.3087 C.ar    1  ZINC000028372981   -0.0700
     24 C24        -9.2916   -0.1054   52.9996 C.3     1  ZINC000028372981   -0.1200
     25 C25       -11.1967   -0.3325   54.6045 C.ar    1  ZINC000028372981   -0.1200
     26 C26       -10.1925   -0.5382   55.7091 C.3     1  ZINC000028372981   -0.1200
     27 C27       -12.6731   -0.4177   61.2815 C.ar    1  ZINC000028372981   -0.0200
     28 C28       -11.8374    0.5532   61.7779 C.ar    1  ZINC000028372981   -0.1800
     29 C29       -10.4617    0.5015   61.5281 C.ar    1  ZINC000028372981    0.1900
     30 H30        -8.0076    3.7315   62.1625 H       1  ZINC000028372981    0.1000
     31 H31        -8.8454    4.1965   63.6626 H       1  ZINC000028372981    0.1000
     32 H32        -7.7762    2.7734   63.6446 H       1  ZINC000028372981    0.1000
     33 H33        -7.7218    1.6800   60.7833 H       1  ZINC000028372981    0.0900
     34 H34        -7.4870    0.7171   62.2732 H       1  ZINC000028372981    0.0900
     35 H35        -8.1632   -0.2428   59.6091 H       1  ZINC000028372981    0.1000
     36 H36        -7.9264   -1.2063   61.0990 H       1  ZINC000028372981    0.1000
     37 H37       -10.3660   -2.3346   59.6908 H       1  ZINC000028372981    0.1400
     38 H38       -15.3238   -3.6261   57.4176 H       1  ZINC000028372981    0.0800
     39 H39       -15.7940   -2.8263   58.9366 H       1  ZINC000028372981    0.0800
     40 H40       -16.1897   -2.0715   57.3738 H       1  ZINC000028372981    0.0800
     41 H41       -12.8344    0.1167   56.8788 H       1  ZINC000028372981    0.4100
     42 H42       -14.5360   -0.1695   54.0866 H       1  ZINC000028372981    0.1400
     43 H43       -13.7582    0.1920   51.7795 H       1  ZINC000028372981    0.1300
     44 H44       -11.3483    0.2232   51.2816 H       1  ZINC000028372981    0.1200
     45 H45        -8.9147    0.9130   53.0934 H       1  ZINC000028372981    0.0700
     46 H46        -8.7647   -0.7538   53.6996 H       1  ZINC000028372981    0.0700
     47 H47        -9.1286   -0.4608   51.9821 H       1  ZINC000028372981    0.0700
     48 H48        -9.9285    0.4257   56.1443 H       1  ZINC000028372981    0.0700
     49 H49       -10.6245   -1.1781   56.4784 H       1  ZINC000028372981    0.0600
     50 H50        -9.2980   -1.0108   55.3035 H       1  ZINC000028372981    0.0800
     51 H51       -13.7336   -0.3696   61.4797 H       1  ZINC000028372981    0.1500
     52 H52       -12.2454    1.3627   62.3650 H       1  ZINC000028372981    0.1500
@<TRIPOS>BOND
     1     1     2    1
     2     1    30    1
     3     1    31    1
     4     1    32    1
     5     2     3    2
     6     2     4   am
     7     4    29    1
     8     4     5    1
     9     5     6    1
    10     5    33    1
    11     5    34    1
    12     6     7    1
    13     6    35    1
    14     6    36    1
    15     7    29   ar
    16     7     8   ar
    17     8     9   ar
    18     8    37    1
    19     9    10    1
    20     9    27   ar
    21    10    11    2
    22    10    12    1
    23    12    13    1
    24    13    14    1
    25    13    15    1
    26    13    16    1
    27    15    38    1
    28    15    39    1
    29    15    40    1
    30    16    17    2
    31    16    18   am
    32    18    19    1
    33    18    41    1
    34    19    25   ar
    35    19    20   ar
    36    20    21   ar
    37    20    42    1
    38    21    22   ar
    39    21    43    1
    40    22    23   ar
    41    22    44    1
    42    23    24    1
    43    23    25   ar
    44    24    45    1
    45    24    46    1
    46    24    47    1
    47    25    26    1
    48    26    48    1
    49    26    49    1
    50    26    50    1
    51    27    28   ar
    52    27    51    1
    53    28    29   ar
    54    28    52    1
@<TRIPOS>SUBSTRUCTURE
     1 ZINC000028372981        1 TEMP              0 ****  ****    0 ROOT


##########                                Name:    ZINC001456096501
##########                DOCK_Rotatable_Bonds:                   7
##########                         Heavy_Atoms:                  24
##########                    Molecular_Weight:             333.431
##########                DOCK_Rotatable_Bonds:                   7
##########                       Formal_Charge:          -0.0200003
##########                     HBond_Acceptors:                   6
##########                        HBond_Donors:                   0
##########                         Heavy_Atoms:                  24
##########                          Grid_Score:          -27.864513
##########                     Grid_vdw_energy:          -27.217758
##########                      Grid_es_energy:           -0.646756
##########           Internal_energy_repulsive:          128.274582

@<TRIPOS>MOLECULE
ZINC001456096501
 51 52 1 0 0
SMALL
USER_CHARGES


@<TRIPOS>ATOM
      1 C1        -11.3514   -2.3710   58.5994 C.3     1  ZINC001456096501    0.0400
      2 O2        -10.2621   -2.1478   57.7017 O.3     1  ZINC001456096501   -0.2900
      3 C3         -9.0702   -2.6994   58.0321 C.ar    1  ZINC001456096501    0.3700
      4 N4         -8.9170   -4.0116   57.9816 N.ar    1  ZINC001456096501   -0.5400
      5 C5         -7.7736   -4.5905   58.2942 C.ar    1  ZINC001456096501    0.1600
      6 C6         -6.6784   -3.8450   58.6912 C.ar    1  ZINC001456096501   -0.2200
      7 C7         -6.7828   -2.4669   58.7620 C.ar    1  ZINC001456096501   -0.0200
      8 C8         -8.0037   -1.8744   58.4205 C.ar    1  ZINC001456096501   -0.2000
      9 C9         -8.1698   -0.4096   58.4777 C.2     1  ZINC001456096501    0.5900
     10 O10        -7.9750    0.2636   57.4842 O.2     1  ZINC001456096501   -0.5100
     11 N11        -8.5375    0.1823   59.6314 N.am    1  ZINC001456096501   -0.6200
     12 C12        -8.7383    1.6254   59.8280 C.3     1  ZINC001456096501    0.1000
     13 C13        -9.1260    1.8367   61.3067 C.3     1  ZINC001456096501   -0.1200
     14 C14        -8.5706    0.5630   61.9970 C.3     1  ZINC001456096501   -0.1200
     15 H15        -7.5085    0.6697   62.2177 H       1  ZINC001456096501    0.0900
     16 C16        -9.3615    0.2378   63.2658 C.3     1  ZINC001456096501    0.1200
     17 N17        -8.8389    1.0285   64.3829 N.am    1  ZINC001456096501   -0.6200
     18 C18        -7.6948    0.5382   65.1554 C.3     1  ZINC001456096501    0.0600
     19 C19        -9.4106    2.2071   64.6999 C.2     1  ZINC001456096501    0.5200
     20 O20       -10.3578    2.6131   64.0605 O.2     1  ZINC001456096501   -0.5300
     21 C21        -8.8730    3.0204   65.8490 C.3     1  ZINC001456096501   -0.0800
     22 C22        -9.2533    2.3496   67.1706 C.3     1  ZINC001456096501   -0.1300
     23 C23        -7.3494    3.1095   65.7422 C.3     1  ZINC001456096501   -0.1500
     24 C24        -9.4707    4.4281   65.8013 C.3     1  ZINC001456096501   -0.1700
     25 C25        -8.8111   -0.5108   60.9035 C.3     1  ZINC001456096501    0.1200
     26 H26       -11.5379   -3.4415   58.6854 H       1  ZINC001456096501    0.0600
     27 H27       -11.1028   -1.9656   59.5803 H       1  ZINC001456096501    0.0600
     28 H28       -12.2443   -1.8762   58.2174 H       1  ZINC001456096501    0.1000
     29 H29        -7.6914   -5.6659   58.2397 H       1  ZINC001456096501    0.1700
     30 H30        -5.7495   -4.3343   58.9443 H       1  ZINC001456096501    0.1500
     31 H31        -5.9416   -1.8633   59.0696 H       1  ZINC001456096501    0.1500
     32 H32        -7.8156    2.1617   59.6064 H       1  ZINC001456096501    0.0700
     33 H33        -9.5402    1.9797   59.1803 H       1  ZINC001456096501    0.0700
     34 H34        -8.6485    2.7313   61.7065 H       1  ZINC001456096501    0.0900
     35 H35       -10.2089    1.8942   61.4171 H       1  ZINC001456096501    0.0800
     36 H36       -10.4130    0.4791   63.1103 H       1  ZINC001456096501    0.0800
     37 H37        -9.2620   -0.8234   63.4939 H       1  ZINC001456096501    0.0900
     38 H38        -6.7733    0.9421   64.7361 H       1  ZINC001456096501    0.0600
     39 H39        -7.7928    0.8581   66.1928 H       1  ZINC001456096501    0.0900
     40 H40        -7.6669   -0.5507   65.1120 H       1  ZINC001456096501    0.0700
     41 H41        -8.8275    1.3467   67.2046 H       1  ZINC001456096501    0.0600
     42 H42        -8.8645    2.9378   68.0017 H       1  ZINC001456096501    0.0600
     43 H43       -10.3388    2.2861   67.2466 H       1  ZINC001456096501    0.0600
     44 H44        -7.0750    3.4649   64.7490 H       1  ZINC001456096501    0.0700
     45 H45        -6.9724    3.8033   66.4935 H       1  ZINC001456096501    0.0700
     46 H46        -6.9153    2.1235   65.9079 H       1  ZINC001456096501    0.0600
     47 H47       -10.5562    4.3647   65.8774 H       1  ZINC001456096501    0.0600
     48 H48        -9.0820    5.0163   66.6325 H       1  ZINC001456096501    0.0700
     49 H49        -9.1998    4.9060   64.8598 H       1  ZINC001456096501    0.0800
     50 H50        -9.8426   -0.8613   60.9363 H       1  ZINC001456096501    0.0800
     51 H51        -8.1217   -1.3451   61.0329 H       1  ZINC001456096501    0.0700
@<TRIPOS>BOND
     1     1     2    1
     2     1    26    1
     3     1    27    1
     4     1    28    1
     5     2     3    1
     6     3     8   ar
     7     3     4   ar
     8     4     5   ar
     9     5     6   ar
    10     5    29    1
    11     6     7   ar
    12     6    30    1
    13     7     8   ar
    14     7    31    1
    15     8     9    1
    16     9    10    2
    17     9    11   am
    18    11    25    1
    19    11    12    1
    20    12    13    1
    21    12    32    1
    22    12    33    1
    23    13    14    1
    24    13    34    1
    25    13    35    1
    26    14    15    1
    27    14    16    1
    28    14    25    1
    29    16    17    1
    30    16    36    1
    31    16    37    1
    32    17    18    1
    33    17    19   am
    34    18    38    1
    35    18    39    1
    36    18    40    1
    37    19    20    2
    38    19    21    1
    39    21    22    1
    40    21    23    1
    41    21    24    1
    42    22    41    1
    43    22    42    1
    44    22    43    1
    45    23    44    1
    46    23    45    1
    47    23    46    1
    48    24    47    1
    49    24    48    1
    50    24    49    1
    51    25    50    1
    52    25    51    1
@<TRIPOS>SUBSTRUCTURE
     1 ZINC001456096501        1 TEMP              0 ****  ****    0 ROOT


##########                                Name:    ZINC001490207225
##########                DOCK_Rotatable_Bonds:                   7
##########                         Heavy_Atoms:                  24
##########                    Molecular_Weight:             334.378
##########                DOCK_Rotatable_Bonds:                   7
##########                       Formal_Charge:           -0.010001
##########                     HBond_Acceptors:                   9
##########                        HBond_Donors:                   3
##########                         Heavy_Atoms:                  24
##########                          Grid_Score:          -27.833143
##########                     Grid_vdw_energy:          -26.376036
##########                      Grid_es_energy:           -1.457108
##########           Internal_energy_repulsive:            6.042899

@<TRIPOS>MOLECULE
ZINC001490207225
 46 48 1 0 0
SMALL
USER_CHARGES


@<TRIPOS>ATOM
      1 C1         -6.6249    1.7933   58.0998 C.3     1  ZINC001490207225    0.0900
      2 N2         -7.0705    2.2930   56.7967 N.pl3   1  ZINC001490207225   -0.3600
      3 C3         -6.4016    3.1581   56.0177 C.2     1  ZINC001490207225    0.1300
      4 C4         -7.1616    3.3665   54.8843 C.2     1  ZINC001490207225   -0.3000
      5 C5         -6.8188    4.2432   53.7497 C.2     1  ZINC001490207225    0.6200
      6 O6         -7.2407    5.3831   53.7131 O.2     1  ZINC001490207225   -0.5400
      7 N7         -6.0379    3.7813   52.7531 N.am    1  ZINC001490207225   -0.6200
      8 C8         -5.6008    4.5258   51.5608 C.3     1  ZINC001490207225    0.1100
      9 C9         -5.4624    3.4929   50.4303 C.3     1  ZINC001490207225   -0.1100
     10 H10        -6.2975    3.5368   49.7311 H       1  ZINC001490207225    0.1000
     11 C11        -4.1046    3.6952   49.7255 C.3     1  ZINC001490207225    0.1000
     12 N12        -3.5675    2.3269   49.5438 N.am    1  ZINC001490207225   -0.6200
     13 C13        -2.9099    1.8318   48.4767 C.2     1  ZINC001490207225    0.5300
     14 O14        -2.5307    0.6797   48.4791 O.2     1  ZINC001490207225   -0.5300
     15 C15        -2.6457    2.7094   47.2806 C.3     1  ZINC001490207225    0.1200
     16 N16        -1.4719    2.2113   46.5590 N.am    1  ZINC001490207225   -0.7400
     17 C17        -1.6296    1.5047   45.4223 C.2     1  ZINC001490207225    0.7100
     18 N18        -0.5498    1.0478   44.7577 N.am    1  ZINC001490207225   -0.8600
     19 O19        -2.7458    1.2793   44.9963 O.2     1  ZINC001490207225   -0.5900
     20 C20        -3.9172    1.6264   50.8010 C.3     1  ZINC001490207225    0.1100
     21 C21        -5.3665    2.1186   51.1424 C.3     1  ZINC001490207225   -0.0800
     22 C22        -6.4344    1.1224   50.6864 C.3     1  ZINC001490207225   -0.1300
     23 C23        -5.4501    2.4359   52.6474 C.3     1  ZINC001490207225    0.1000
     24 C24        -8.3293    2.5820   55.0151 C.2     1  ZINC001490207225    0.0700
     25 N25        -8.2623    1.9446   56.1514 N.2     1  ZINC001490207225   -0.2900
     26 H26        -6.0351    0.8876   57.9592 H       1  ZINC001490207225    0.0800
     27 H27        -6.0148    2.5517   58.5905 H       1  ZINC001490207225    0.0900
     28 H28        -7.4933    1.5690   58.7192 H       1  ZINC001490207225    0.1000
     29 H29        -5.4448    3.6084   56.2375 H       1  ZINC001490207225    0.1900
     30 H30        -6.3459    5.2752   51.2937 H       1  ZINC001490207225    0.0900
     31 H31        -4.6397    5.0041   51.7501 H       1  ZINC001490207225    0.0800
     32 H32        -4.2468    4.1788   48.7591 H       1  ZINC001490207225    0.0900
     33 H33        -3.4359    4.2857   50.3518 H       1  ZINC001490207225    0.0900
     34 H34        -3.5123    2.6935   46.6197 H       1  ZINC001490207225    0.1000
     35 H35        -2.4611    3.7310   47.6132 H       1  ZINC001490207225    0.1000
     36 H36        -0.5814    2.3900   46.8995 H       1  ZINC001490207225    0.4100
     37 H37        -0.6633    0.5401   43.9389 H       1  ZINC001490207225    0.4000
     38 H38         0.3407    1.2264   45.0981 H       1  ZINC001490207225    0.4200
     39 H39        -3.9177    0.5474   50.6471 H       1  ZINC001490207225    0.0900
     40 H40        -3.2196    1.8975   51.5935 H       1  ZINC001490207225    0.0800
     41 H41        -6.2856    0.1710   51.1972 H       1  ZINC001490207225    0.0700
     42 H42        -7.4228    1.5135   50.9274 H       1  ZINC001490207225    0.0600
     43 H43        -6.3556    0.9728   49.6096 H       1  ZINC001490207225    0.0600
     44 H44        -4.4515    2.4446   53.0840 H       1  ZINC001490207225    0.0800
     45 H45        -6.0726    1.6966   53.1515 H       1  ZINC001490207225    0.0900
     46 H46        -9.1344    2.5178   54.2980 H       1  ZINC001490207225    0.2000
@<TRIPOS>BOND
     1     1     2    1
     2     1    26    1
     3     1    27    1
     4     1    28    1
     5     2    25    1
     6     2     3    1
     7     3     4    2
     8     3    29    1
     9     4     5    1
    10     4    24    1
    11     5     6    2
    12     5     7   am
    13     7    23    1
    14     7     8    1
    15     8     9    1
    16     8    30    1
    17     8    31    1
    18     9    10    1
    19     9    21    1
    20     9    11    1
    21    11    12    1
    22    11    32    1
    23    11    33    1
    24    12    13   am
    25    12    20    1
    26    13    14    2
    27    13    15    1
    28    15    16    1
    29    15    34    1
    30    15    35    1
    31    16    17   am
    32    16    36    1
    33    17    18   am
    34    17    19    2
    35    18    37    1
    36    18    38    1
    37    20    21    1
    38    20    39    1
    39    20    40    1
    40    21    22    1
    41    21    23    1
    42    22    41    1
    43    22    42    1
    44    22    43    1
    45    23    44    1
    46    23    45    1
    47    24    25    2
    48    24    46    1
@<TRIPOS>SUBSTRUCTURE
     1 ZINC001490207225        1 TEMP              0 ****  ****    0 ROOT


##########                                Name:    ZINC000467104849
##########                DOCK_Rotatable_Bonds:                   6
##########                         Heavy_Atoms:                  29
##########                    Molecular_Weight:             421.896
##########                DOCK_Rotatable_Bonds:                   6
##########                       Formal_Charge:           0.0200002
##########                     HBond_Acceptors:                   7
##########                        HBond_Donors:                   0
##########                         Heavy_Atoms:                  29
##########                          Grid_Score:          -27.824175
##########                     Grid_vdw_energy:          -25.926044
##########                      Grid_es_energy:           -1.898131
##########           Internal_energy_repulsive:           69.530205

@<TRIPOS>MOLECULE
ZINC000467104849
 54 56 1 0 0
SMALL
USER_CHARGES


@<TRIPOS>ATOM
      1 C1         -5.6363    3.8003   57.7721 C.3     1  ZINC000467104849    0.0200
      2 O2         -6.9368    4.2002   57.3348 O.3     1  ZINC000467104849   -0.3000
      3 C3         -7.4758    3.5133   56.2921 C.ar    1  ZINC000467104849    0.1000
      4 C4         -6.7161    2.5765   55.6111 C.ar    1  ZINC000467104849   -0.1700
      5 C5         -7.2658    1.8787   54.5514 C.ar    1  ZINC000467104849   -0.1200
      6 C6         -8.5729    2.1140   54.1688 C.ar    1  ZINC000467104849   -0.0800
      7 C7         -9.1669    1.3511   53.0128 C.3     1  ZINC000467104849   -0.0400
      8 C8         -9.9035    0.1181   53.5402 C.3     1  ZINC000467104849   -0.1300
      9 C9        -10.1504    2.2496   52.2604 C.3     1  ZINC000467104849   -0.1600
     10 C10        -8.0667    0.9176   52.0787 C.2     1  ZINC000467104849    0.5300
     11 O11        -7.9238   -0.2573   51.8138 O.2     1  ZINC000467104849   -0.5300
     12 N12        -7.2416    1.8356   51.5374 N.am    1  ZINC000467104849   -0.6100
     13 C13        -7.3954    3.2666   51.8438 C.3     1  ZINC000467104849    0.0600
     14 C14        -6.0305    3.8194   52.2695 C.3     1  ZINC000467104849    0.0500
     15 O15        -5.0566    3.4835   51.2784 O.3     1  ZINC000467104849   -0.3700
     16 C16        -4.8550    2.0784   51.1085 C.3     1  ZINC000467104849    0.1300
     17 H17        -4.5631    1.6347   52.0604 H       1  ZINC000467104849    0.0800
     18 C18        -3.7689    1.8451   50.0902 C.ar    1  ZINC000467104849   -0.0900
     19 C19        -2.5947    1.2192   50.4642 C.ar    1  ZINC000467104849   -0.0500
     20 C20        -1.5973    1.0044   49.5315 C.ar    1  ZINC000467104849   -0.1400
     21 C21        -1.7745    1.4159   48.2220 C.ar    1  ZINC000467104849    0.1200
     22 F22        -0.8005    1.2061   47.3096 F       1  ZINC000467104849   -0.1200
     23 C23        -2.9522    2.0432   47.8475 C.ar    1  ZINC000467104849   -0.0800
     24 Cl24       -3.1768    2.5603   46.2056 Cl      1  ZINC000467104849   -0.0400
     25 C25        -3.9502    2.2524   48.7815 C.ar    1  ZINC000467104849   -0.0700
     26 C26        -6.1563    1.4359   50.6277 C.3     1  ZINC000467104849    0.0900
     27 C27        -9.3370    3.0476   54.8447 C.ar    1  ZINC000467104849   -0.1600
     28 C28        -8.7940    3.7462   55.9106 C.ar    1  ZINC000467104849    0.1100
     29 O29        -9.5441    4.6647   56.5763 O.3     1  ZINC000467104849   -0.3000
     30 C30       -10.9042    4.8136   56.1639 C.3     1  ZINC000467104849    0.0200
     31 H31        -5.3251    4.4276   58.6073 H       1  ZINC000467104849    0.1000
     32 H32        -5.6647    2.7583   58.0910 H       1  ZINC000467104849    0.0600
     33 H33        -4.9274    3.9098   56.9514 H       1  ZINC000467104849    0.0600
     34 H34        -5.6942    2.3913   55.9076 H       1  ZINC000467104849    0.1400
     35 H35        -6.6724    1.1485   54.0212 H       1  ZINC000467104849    0.1300
     36 H36       -10.7536    0.4337   54.1451 H       1  ZINC000467104849    0.0700
     37 H37       -10.2572   -0.4806   52.7008 H       1  ZINC000467104849    0.0700
     38 H38        -9.2244   -0.4774   54.1505 H       1  ZINC000467104849    0.0700
     39 H39        -9.6102    3.0818   51.8092 H       1  ZINC000467104849    0.0700
     40 H40       -10.6460    1.6723   51.4799 H       1  ZINC000467104849    0.0700
     41 H41       -10.8959    2.6348   52.9561 H       1  ZINC000467104849    0.0700
     42 H42        -7.7457    3.7961   50.9577 H       1  ZINC000467104849    0.0800
     43 H43        -8.1122    3.3934   52.6552 H       1  ZINC000467104849    0.1100
     44 H44        -6.0912    4.9033   52.3677 H       1  ZINC000467104849    0.1100
     45 H45        -5.7428    3.3821   53.2256 H       1  ZINC000467104849    0.0600
     46 H46        -2.4562    0.8979   51.4859 H       1  ZINC000467104849    0.1500
     47 H47        -0.6798    0.5158   49.8246 H       1  ZINC000467104849    0.1500
     48 H48        -4.8684    2.7408   48.4903 H       1  ZINC000467104849    0.1500
     49 H49        -6.0531    0.3507   50.6313 H       1  ZINC000467104849    0.1100
     50 H50        -6.3848    1.7800   49.6190 H       1  ZINC000467104849    0.0800
     51 H51       -10.3581    3.2295   54.5438 H       1  ZINC000467104849    0.1400
     52 H52       -10.9354    5.1135   55.1164 H       1  ZINC000467104849    0.0600
     53 H53       -11.4267    3.8647   56.2859 H       1  ZINC000467104849    0.0600
     54 H54       -11.3877    5.5758   56.7748 H       1  ZINC000467104849    0.1000
@<TRIPOS>BOND
     1     1     2    1
     2     1    31    1
     3     1    32    1
     4     1    33    1
     5     2     3    1
     6     3    28   ar
     7     3     4   ar
     8     4     5   ar
     9     4    34    1
    10     5     6   ar
    11     5    35    1
    12     6     7    1
    13     6    27   ar
    14     7     8    1
    15     7     9    1
    16     7    10    1
    17     8    36    1
    18     8    37    1
    19     8    38    1
    20     9    39    1
    21     9    40    1
    22     9    41    1
    23    10    11    2
    24    10    12   am
    25    12    26    1
    26    12    13    1
    27    13    14    1
    28    13    42    1
    29    13    43    1
    30    14    15    1
    31    14    44    1
    32    14    45    1
    33    15    16    1
    34    16    17    1
    35    16    18    1
    36    16    26    1
    37    18    25   ar
    38    18    19   ar
    39    19    20   ar
    40    19    46    1
    41    20    21   ar
    42    20    47    1
    43    21    22    1
    44    21    23   ar
    45    23    24    1
    46    23    25   ar
    47    25    48    1
    48    26    49    1
    49    26    50    1
    50    27    28   ar
    51    27    51    1
    52    28    29    1
    53    29    30    1
    54    30    52    1
    55    30    53    1
    56    30    54    1
@<TRIPOS>SUBSTRUCTURE
     1 ZINC000467104849        1 TEMP              0 ****  ****    0 ROOT


##########                                Name:    ZINC000793092912
##########                DOCK_Rotatable_Bonds:                   4
##########                         Heavy_Atoms:                  26
##########                    Molecular_Weight:               407.2
##########                DOCK_Rotatable_Bonds:                   4
##########                       Formal_Charge:         2.90573e-07
##########                     HBond_Acceptors:                  10
##########                        HBond_Donors:                   1
##########                         Heavy_Atoms:                  26
##########                          Grid_Score:          -27.823185
##########                     Grid_vdw_energy:          -28.046227
##########                      Grid_es_energy:            0.223041
##########           Internal_energy_repulsive:           12.294363

@<TRIPOS>MOLECULE
ZINC000793092912
 40 43 1 0 0
SMALL
USER_CHARGES


@<TRIPOS>ATOM
      1 C1         -9.8967    3.6062   50.9925 C.3     1  ZINC000793092912   -0.1300
      2 C2         -8.5185    2.9675   51.1757 C.3     1  ZINC000793092912   -0.0800
      3 C3         -7.5328    3.2189   50.0451 C.3     1  ZINC000793092912   -0.1100
      4 C4         -6.1971    3.7365   50.5449 C.3     1  ZINC000793092912    0.1100
      5 N5         -5.7625    3.0478   51.7485 N.am    1  ZINC000793092912   -0.5700
      6 C6         -4.5572    2.4448   51.7527 C.2     1  ZINC000793092912    0.5100
      7 O7         -4.1729    1.8636   52.7463 O.2     1  ZINC000793092912   -0.5100
      8 C8         -3.6946    2.4919   50.5346 C.2     1  ZINC000793092912    0.5100
      9 O9         -3.2225    3.5477   50.1657 O.2     1  ZINC000793092912   -0.4900
     10 N10        -3.4402    1.3623   49.8448 N.am    1  ZINC000793092912   -0.6400
     11 C11        -2.6324    1.4065   48.7041 C.ar    1  ZINC000793092912    0.1600
     12 C12        -3.1019    2.0069   47.5433 C.ar    1  ZINC000793092912   -0.1200
     13 C13        -2.3048    2.0512   46.4154 C.ar    1  ZINC000793092912   -0.0600
     14 C14        -1.0355    1.4964   46.4390 C.ar    1  ZINC000793092912    0.0200
     15 O15        -0.0689    1.4093   45.4779 O.3     1  ZINC000793092912   -0.2800
     16 C16         1.1500    1.1126   46.1845 C.3     1  ZINC000793092912    0.5700
     17 F17         1.9722    0.2797   45.4181 F       1  ZINC000793092912   -0.1100
     18 F18         1.8234    2.2921   46.5197 F       1  ZINC000793092912   -0.1500
     19 O19         0.7011    0.4288   47.3693 O.3     1  ZINC000793092912   -0.2800
     20 C20        -0.5614    0.8931   47.6022 C.ar    1  ZINC000793092912    0.0500
     21 C21        -1.3579    0.8546   48.7336 C.ar    1  ZINC000793092912   -0.0900
     22 C22        -6.5817    2.9865   52.9496 C.3     1  ZINC000793092912    0.1100
     23 C23        -8.0442    2.7496   52.6030 C.3     1  ZINC000793092912   -0.1200
     24 H24        -8.7491    3.0640   53.3725 H       1  ZINC000793092912    0.1400
     25 C25        -8.4848    1.5515   51.7756 C.3     1  ZINC000793092912    0.0000
     26 Cl26      -10.0531    0.7728   52.2055 Cl      1  ZINC000793092912   -0.0800
     27 Cl27       -7.2016    0.4383   51.1712 Cl      1  ZINC000793092912   -0.0900
     28 H28        -9.9052    4.5919   51.4579 H       1  ZINC000793092912    0.0800
     29 H29       -10.1129    3.7049   49.9287 H       1  ZINC000793092912    0.0700
     30 H30       -10.6539    2.9770   51.4602 H       1  ZINC000793092912    0.0700
     31 H31        -7.3700    2.2863   49.5050 H       1  ZINC000793092912    0.0900
     32 H32        -7.9608    3.9509   49.3602 H       1  ZINC000793092912    0.1000
     33 H33        -5.4482    3.5951   49.7657 H       1  ZINC000793092912    0.1100
     34 H34        -6.2872    4.8015   50.7589 H       1  ZINC000793092912    0.0800
     35 H35        -3.8176    0.5187   50.1396 H       1  ZINC000793092912    0.4300
     36 H36        -4.0913    2.4395   47.5218 H       1  ZINC000793092912    0.1500
     37 H37        -2.6720    2.5188   45.5138 H       1  ZINC000793092912    0.1500
     38 H38        -0.9901    0.3924   49.6377 H       1  ZINC000793092912    0.1600
     39 H39        -6.2389    2.1613   53.5738 H       1  ZINC000793092912    0.1400
     40 H40        -6.4748    3.9196   53.5028 H       1  ZINC000793092912    0.1000
@<TRIPOS>BOND
     1     1     2    1
     2     1    28    1
     3     1    29    1
     4     1    30    1
     5     2    23    1
     6     2    25    1
     7     2     3    1
     8     3     4    1
     9     3    31    1
    10     3    32    1
    11     4     5    1
    12     4    33    1
    13     4    34    1
    14     5     6   am
    15     5    22    1
    16     6     7    2
    17     6     8    1
    18     8     9    2
    19     8    10   am
    20    10    11    1
    21    10    35    1
    22    11    21   ar
    23    11    12   ar
    24    12    13   ar
    25    12    36    1
    26    13    14   ar
    27    13    37    1
    28    14    20   ar
    29    14    15    1
    30    15    16    1
    31    16    17    1
    32    16    18    1
    33    16    19    1
    34    19    20    1
    35    20    21   ar
    36    21    38    1
    37    22    23    1
    38    22    39    1
    39    22    40    1
    40    23    24    1
    41    23    25    1
    42    25    26    1
    43    25    27    1
@<TRIPOS>SUBSTRUCTURE
     1 ZINC000793092912        1 TEMP              0 ****  ****    0 ROOT


##########                                Name:    ZINC000022858610
##########                DOCK_Rotatable_Bonds:                   9
##########                         Heavy_Atoms:                  26
##########                    Molecular_Weight:             369.343
##########                DOCK_Rotatable_Bonds:                   9
##########                       Formal_Charge:          0.00999956
##########                     HBond_Acceptors:                   9
##########                        HBond_Donors:                   2
##########                         Heavy_Atoms:                  26
##########                          Grid_Score:          -27.819118
##########                     Grid_vdw_energy:          -27.012341
##########                      Grid_es_energy:           -0.806777
##########           Internal_energy_repulsive:           15.791620

@<TRIPOS>MOLECULE
ZINC000022858610
 44 45 1 0 0
SMALL
USER_CHARGES


@<TRIPOS>ATOM
      1 C1          1.2437    0.4405   47.4778 C.3     1  <0>         0.0100
      2 N2         -0.0314    1.1534   47.3241 N.3     1  <0>        -0.5300
      3 C3         -0.6744    0.8130   46.0479 C.3     1  <0>         0.0200
      4 C4         -0.9278    0.8788   48.4549 C.3     1  <0>         0.1500
      5 H5         -1.0578   -0.1980   48.5624 H       1  <0>         0.1200
      6 C6         -2.2868    1.5335   48.1990 C.3     1  <0>         0.1300
      7 N7         -3.0174    1.6524   49.4632 N.am    1  <0>        -0.6800
      8 C8         -3.8887    2.6643   49.6454 C.2     1  <0>         0.5100
      9 O9         -4.0693    3.4762   48.7616 O.2     1  <0>        -0.5100
     10 C10        -4.6322    2.7866   50.9350 C.2     1  <0>         0.5200
     11 O11        -4.8267    3.8811   51.4220 O.2     1  <0>        -0.4900
     12 N12        -5.0872    1.6813   51.5579 N.am    1  <0>        -0.6500
     13 C13        -5.7827    1.7958   52.7644 C.ar    1  <0>         0.1900
     14 C14        -5.1050    2.1314   53.9295 C.ar    1  <0>        -0.1200
     15 C15        -5.7957    2.2435   55.1203 C.ar    1  <0>        -0.0700
     16 C16        -7.1602    2.0223   55.1534 C.ar    1  <0>        -0.1300
     17 C17        -7.8381    1.6875   53.9952 C.ar    1  <0>        -0.0500
     18 C18        -7.1549    1.5797   52.8001 C.ar    1  <0>        -0.2100
     19 C19        -7.8943    1.2149   51.5387 C.3     1  <0>         0.5100
     20 F20        -9.2612    1.1042   51.8149 F       1  <0>        -0.1700
     21 F21        -7.6921    2.2092   50.5756 F       1  <0>        -0.1800
     22 F22        -7.4159   -0.0074   51.0547 F       1  <0>        -0.1700
     23 C23        -0.3293    1.4412   49.7184 C.2     1  <0>        -0.0500
     24 C24         0.3225    2.6129   49.8264 C.2     1  <0>        -0.1900
     25 C25         0.7108    2.7425   51.1797 C.2     1  <0>        -0.2100
     26 C26         0.2730    1.6422   51.8178 C.2     1  <0>        -0.0400
     27 O27        -0.3613    0.8602   50.9290 O.3     1  <0>        -0.1700
     28 H28         1.9545    0.8026   46.7349 H       1  <0>         0.0700
     29 H29         1.6409    0.6176   48.4773 H       1  <0>         0.0700
     30 H30         1.0820   -0.6281   47.3353 H       1  <0>         0.0500
     31 H31        -0.8671   -0.2593   46.0128 H       1  <0>         0.0300
     32 H32        -1.6163    1.3545   45.9597 H       1  <0>         0.0700
     33 H33        -0.0169    1.0910   45.2242 H       1  <0>         0.0800
     34 H34        -2.1378    2.5248   47.7709 H       1  <0>         0.0900
     35 H35        -2.8605    0.9202   47.5041 H       1  <0>         0.0800
     36 H36        -2.8740    1.0029   50.1692 H       1  <0>         0.4200
     37 H37        -4.9318    0.8066   51.1687 H       1  <0>         0.4300
     38 H38        -4.0392    2.3040   53.9044 H       1  <0>         0.1500
     39 H39        -5.2694    2.5041   56.0267 H       1  <0>         0.1400
     40 H40        -7.6978    2.1107   56.0859 H       1  <0>         0.1400
     41 H41        -8.9037    1.5146   54.0248 H       1  <0>         0.1500
     42 H42         0.5132    3.3189   49.0317 H       1  <0>         0.1500
     43 H43         1.2548    3.5666   51.6171 H       1  <0>         0.1500
     44 H44         0.4056    1.4262   52.8676 H       1  <0>         0.2000
@<TRIPOS>BOND
     1     1     2    1
     2     1    28    1
     3     1    29    1
     4     1    30    1
     5     2     3    1
     6     2     4    1
     7     3    31    1
     8     3    32    1
     9     3    33    1
    10     4     5    1
    11     4     6    1
    12     4    23    1
    13     6     7    1
    14     6    34    1
    15     6    35    1
    16     7     8   am
    17     7    36    1
    18     8     9    2
    19     8    10    1
    20    10    11    2
    21    10    12   am
    22    12    13    1
    23    12    37    1
    24    13    18   ar
    25    13    14   ar
    26    14    15   ar
    27    14    38    1
    28    15    16   ar
    29    15    39    1
    30    16    17   ar
    31    16    40    1
    32    17    18   ar
    33    17    41    1
    34    18    19    1
    35    19    20    1
    36    19    21    1
    37    19    22    1
    38    23    27    1
    39    23    24    2
    40    24    25    1
    41    24    42    1
    42    25    26    2
    43    25    43    1
    44    26    27    1
    45    26    44    1
@<TRIPOS>SUBSTRUCTURE
     1 <0>         1 TEMP              0 ****  ****    0 ROOT


##########                                Name:    ZINC000550782577
##########                DOCK_Rotatable_Bonds:                   5
##########                         Heavy_Atoms:                  25
##########                    Molecular_Weight:              338.45
##########                DOCK_Rotatable_Bonds:                   5
##########                       Formal_Charge:         -0.00999954
##########                     HBond_Acceptors:                   4
##########                        HBond_Donors:                   0
##########                         Heavy_Atoms:                  25
##########                          Grid_Score:          -27.749197
##########                     Grid_vdw_energy:          -27.426411
##########                      Grid_es_energy:           -0.322786
##########           Internal_energy_repulsive:           18.377684

@<TRIPOS>MOLECULE
ZINC000550782577
 51 53 1 0 0
SMALL
USER_CHARGES


@<TRIPOS>ATOM
      1 C1        -12.2260    0.0978   56.4251 C.3     1  ZINC000550782577    0.0700
      2 N2        -10.9573    0.2909   55.7185 N.am    1  ZINC000550782577   -0.5900
      3 C3        -10.9195    1.0270   54.5903 C.2     1  ZINC000550782577    0.5800
      4 O4        -11.9381    1.5308   54.1588 O.2     1  ZINC000550782577   -0.5400
      5 C5         -9.6383    1.2218   53.8768 C.ar    1  ZINC000550782577    0.0300
      6 C6         -9.2241    0.2821   52.9337 C.ar    1  ZINC000550782577   -0.0600
      7 C7         -8.0240    0.4751   52.2728 C.ar    1  ZINC000550782577   -0.1200
      8 C8         -7.2734    1.6069   52.5779 C.ar    1  ZINC000550782577    0.1100
      9 O9         -6.0905    1.8352   51.9531 O.3     1  ZINC000550782577   -0.3000
     10 C10        -6.1045    2.7419   50.8486 C.3     1  ZINC000550782577    0.1000
     11 C11        -7.4218    2.5946   50.0847 C.3     1  ZINC000550782577   -0.2000
     12 C12        -5.9717    4.1762   51.3646 C.3     1  ZINC000550782577   -0.1400
     13 C13        -4.9349    2.4256   49.9143 C.3     1  ZINC000550782577   -0.2000
     14 C14        -7.7507    2.5026   53.5318 C.ar    1  ZINC000550782577   -0.0100
     15 N15        -8.8972    2.2928   54.1374 N.ar    1  ZINC000550782577   -0.4100
     16 C16        -9.7295   -0.3163   56.2384 C.3     1  ZINC000550782577    0.1400
     17 H17        -8.9587   -0.3027   55.4679 H       1  ZINC000550782577    0.1100
     18 C18        -9.2467    0.4653   57.4658 C.3     1  ZINC000550782577   -0.1300
     19 C19        -7.8526   -0.0353   57.8381 C.3     1  ZINC000550782577   -0.0800
     20 C20        -7.8421   -1.5374   57.9508 C.ar    1  ZINC000550782577   -0.0800
     21 C21        -6.7884   -2.1270   58.6366 C.ar    1  ZINC000550782577   -0.1200
     22 C22        -6.7186   -3.4985   58.7697 C.ar    1  ZINC000550782577   -0.1200
     23 C23        -7.7046   -4.2930   58.2154 C.ar    1  ZINC000550782577   -0.1200
     24 C24        -8.7536   -3.7089   57.5356 C.ar    1  ZINC000550782577   -0.1200
     25 C25        -8.8276   -2.3284   57.4037 C.ar    1  ZINC000550782577   -0.0700
     26 C26       -10.0078   -1.7571   56.6621 C.3     1  ZINC000550782577   -0.0900
     27 H27       -12.7754   -0.7247   55.9672 H       1  ZINC000550782577    0.0600
     28 H28       -12.0275   -0.1357   57.4712 H       1  ZINC000550782577    0.0600
     29 H29       -12.8192    1.0102   56.3628 H       1  ZINC000550782577    0.1100
     30 H30        -9.8319   -0.5851   52.7221 H       1  ZINC000550782577    0.1600
     31 H31        -7.6774   -0.2361   51.5375 H       1  ZINC000550782577    0.1500
     32 H32        -8.1928    3.1921   50.5712 H       1  ZINC000550782577    0.0700
     33 H33        -7.2878    2.9396   49.0594 H       1  ZINC000550782577    0.0800
     34 H34        -7.7235    1.5472   50.0790 H       1  ZINC000550782577    0.0800
     35 H35        -5.0331    4.2810   51.9089 H       1  ZINC000550782577    0.0700
     36 H36        -5.9824    4.8677   50.5221 H       1  ZINC000550782577    0.0800
     37 H37        -6.8049    4.4014   52.0303 H       1  ZINC000550782577    0.0700
     38 H38        -5.0320    1.4054   49.5431 H       1  ZINC000550782577    0.0800
     39 H39        -4.9429    3.1202   49.0743 H       1  ZINC000550782577    0.0800
     40 H40        -3.9966    2.5260   50.4599 H       1  ZINC000550782577    0.0700
     41 H41        -7.1731    3.3827   53.7731 H       1  ZINC000550782577    0.1900
     42 H42        -9.2040    1.5287   57.2303 H       1  ZINC000550782577    0.0700
     43 H43        -9.9305    0.3004   58.2984 H       1  ZINC000550782577    0.0700
     44 H44        -7.1431    0.2726   57.0701 H       1  ZINC000550782577    0.0800
     45 H45        -7.5581    0.3989   58.7936 H       1  ZINC000550782577    0.0800
     46 H46        -6.0172   -1.5070   59.0692 H       1  ZINC000550782577    0.1200
     47 H47        -5.8962   -3.9499   59.3048 H       1  ZINC000550782577    0.1200
     48 H48        -7.6539   -5.3673   58.3138 H       1  ZINC000550782577    0.1200
     49 H49        -9.5234   -4.3303   57.1025 H       1  ZINC000550782577    0.1200
     50 H50       -10.8840   -1.7779   57.3101 H       1  ZINC000550782577    0.0800
     51 H51       -10.2024   -2.3615   55.7761 H       1  ZINC000550782577    0.0800
@<TRIPOS>BOND
     1     1     2    1
     2     1    27    1
     3     1    28    1
     4     1    29    1
     5     2     3   am
     6     2    16    1
     7     3     4    2
     8     3     5    1
     9     5    15   ar
    10     5     6   ar
    11     6     7   ar
    12     6    30    1
    13     7     8   ar
    14     7    31    1
    15     8     9    1
    16     8    14   ar
    17     9    10    1
    18    10    11    1
    19    10    12    1
    20    10    13    1
    21    11    32    1
    22    11    33    1
    23    11    34    1
    24    12    35    1
    25    12    36    1
    26    12    37    1
    27    13    38    1
    28    13    39    1
    29    13    40    1
    30    14    15   ar
    31    14    41    1
    32    16    17    1
    33    16    26    1
    34    16    18    1
    35    18    19    1
    36    18    42    1
    37    18    43    1
    38    19    20    1
    39    19    44    1
    40    19    45    1
    41    20    25   ar
    42    20    21   ar
    43    21    22   ar
    44    21    46    1
    45    22    23   ar
    46    22    47    1
    47    23    24   ar
    48    23    48    1
    49    24    25   ar
    50    24    49    1
    51    25    26    1
    52    26    50    1
    53    26    51    1
@<TRIPOS>SUBSTRUCTURE
     1 ZINC000550782577        1 TEMP              0 ****  ****    0 ROOT


##########                                Name:    ZINC001248546333
##########                DOCK_Rotatable_Bonds:                   6
##########                         Heavy_Atoms:                  27
##########                    Molecular_Weight:             378.397
##########                DOCK_Rotatable_Bonds:                   6
##########                       Formal_Charge:         3.94881e-07
##########                     HBond_Acceptors:                   8
##########                        HBond_Donors:                   1
##########                         Heavy_Atoms:                  27
##########                          Grid_Score:          -27.739487
##########                     Grid_vdw_energy:          -29.063929
##########                      Grid_es_energy:            1.324441
##########           Internal_energy_repulsive:           30.611588

@<TRIPOS>MOLECULE
ZINC001248546333
 48 50 1 0 0
SMALL
USER_CHARGES


@<TRIPOS>ATOM
      1 C1        -20.0775   -3.3996   58.3614 C.3     1  ZINC001248546333   -0.1200
      2 C2        -19.0078   -3.2676   57.3081 C.ar    1  ZINC001248546333   -0.0800
      3 C3        -19.3178   -3.4883   55.9783 C.ar    1  ZINC001248546333   -0.1200
      4 C4        -18.3414   -3.3690   55.0051 C.ar    1  ZINC001248546333   -0.1100
      5 C5        -17.0515   -3.0285   55.3562 C.ar    1  ZINC001248546333   -0.1100
      6 C6        -16.7323   -2.8040   56.6959 C.ar    1  ZINC001248546333   -0.0600
      7 C7        -15.3522   -2.4387   57.0791 C.2     1  ZINC001248546333   -0.0600
      8 C8        -15.1023   -2.2423   58.3511 C.2     1  ZINC001248546333   -0.1700
      9 C9        -13.7501   -1.8499   58.8786 C.3     1  ZINC001248546333    0.1500
     10 N10       -12.7547   -1.9905   57.8062 N.am    1  ZINC001248546333   -0.6300
     11 C11       -11.5478   -2.5438   58.0383 C.2     1  ZINC001248546333    0.7200
     12 O12       -11.2643   -2.9386   59.1527 O.2     1  ZINC001248546333   -0.5800
     13 N13       -10.6553   -2.6595   57.0350 N.am    1  ZINC001248546333   -0.7500
     14 C14        -9.3435   -3.2609   57.2873 C.3     1  ZINC001248546333    0.2000
     15 C15        -8.3788   -2.1928   57.7341 C.2     1  ZINC001248546333    0.0700
     16 C16        -8.5758   -0.8564   57.6559 C.2     1  ZINC001248546333   -0.2000
     17 C17        -7.4424   -0.2231   58.1762 C.2     1  ZINC001248546333   -0.0200
     18 C18        -7.2334    1.2654   58.2845 C.3     1  ZINC001248546333    0.5600
     19 F19        -8.1037    1.9234   57.4089 F       1  ZINC001248546333   -0.1700
     20 F20        -7.4911    1.6782   59.5960 F       1  ZINC001248546333   -0.1700
     21 F21        -5.9113    1.5764   57.9490 F       1  ZINC001248546333   -0.1600
     22 N22        -6.5954   -1.1461   58.5533 N.2     1  ZINC001248546333   -0.2200
     23 N23        -7.1660   -2.3980   58.2893 N.pl3   1  ZINC001248546333   -0.3400
     24 C24        -6.5510   -3.6999   58.5599 C.3     1  ZINC001248546333    0.0900
     25 C25       -13.1289   -1.5020   56.4677 C.3     1  ZINC001248546333    0.1300
     26 C26       -14.3303   -2.3235   55.9874 C.3     1  ZINC001248546333   -0.1000
     27 C27       -17.7225   -2.9211   57.6718 C.ar    1  ZINC001248546333   -0.1100
     28 H28       -20.5708   -2.4377   58.5008 H       1  ZINC001248546333    0.0700
     29 H29       -20.8105   -4.1412   58.0439 H       1  ZINC001248546333    0.0700
     30 H30       -19.6248   -3.7154   59.3014 H       1  ZINC001248546333    0.0700
     31 H31       -20.3261   -3.7552   55.6983 H       1  ZINC001248546333    0.1200
     32 H32       -18.5896   -3.5434   53.9686 H       1  ZINC001248546333    0.1200
     33 H33       -16.2902   -2.9361   54.5956 H       1  ZINC001248546333    0.1200
     34 H34       -15.9100   -2.3687   59.0568 H       1  ZINC001248546333    0.1200
     35 H35       -13.7776   -0.8141   59.2165 H       1  ZINC001248546333    0.0800
     36 H36       -13.4819   -2.4991   59.7121 H       1  ZINC001248546333    0.0800
     37 H37       -10.8815   -2.3446   56.1459 H       1  ZINC001248546333    0.4000
     38 H38        -9.4346   -4.0174   58.0668 H       1  ZINC001248546333    0.1000
     39 H39        -8.9743   -3.7245   56.3726 H       1  ZINC001248546333    0.0900
     40 H40        -9.4530   -0.3655   57.2610 H       1  ZINC001248546333    0.1700
     41 H41        -6.8205   -4.0275   59.5639 H       1  ZINC001248546333    0.0900
     42 H42        -6.9078   -4.4285   57.8319 H       1  ZINC001248546333    0.1000
     43 H43        -5.4672   -3.6122   58.4849 H       1  ZINC001248546333    0.1000
     44 H44       -13.3973   -0.4470   56.5222 H       1  ZINC001248546333    0.0700
     45 H45       -12.2940   -1.6356   55.7799 H       1  ZINC001248546333    0.1000
     46 H46       -13.9932   -3.3179   55.6947 H       1  ZINC001248546333    0.0800
     47 H47       -14.7824   -1.8312   55.1264 H       1  ZINC001248546333    0.0900
     48 H48       -17.4819   -2.7487   58.7105 H       1  ZINC001248546333    0.1200
@<TRIPOS>BOND
     1     1     2    1
     2     1    28    1
     3     1    29    1
     4     1    30    1
     5     2    27   ar
     6     2     3   ar
     7     3     4   ar
     8     3    31    1
     9     4     5   ar
    10     4    32    1
    11     5     6   ar
    12     5    33    1
    13     6     7    1
    14     6    27   ar
    15     7    26    1
    16     7     8    2
    17     8     9    1
    18     8    34    1
    19     9    10    1
    20     9    35    1
    21     9    36    1
    22    10    11   am
    23    10    25    1
    24    11    12    2
    25    11    13   am
    26    13    14    1
    27    13    37    1
    28    14    15    1
    29    14    38    1
    30    14    39    1
    31    15    23    1
    32    15    16    2
    33    16    17    1
    34    16    40    1
    35    17    18    1
    36    17    22    2
    37    18    19    1
    38    18    20    1
    39    18    21    1
    40    22    23    1
    41    23    24    1
    42    24    41    1
    43    24    42    1
    44    24    43    1
    45    25    26    1
    46    25    44    1
    47    25    45    1
    48    26    46    1
    49    26    47    1
    50    27    48    1
@<TRIPOS>SUBSTRUCTURE
     1 ZINC001248546333        1 TEMP              0 ****  ****    0 ROOT


##########                                Name:    ZINC000885154703
##########                DOCK_Rotatable_Bonds:                   5
##########                         Heavy_Atoms:                  24
##########                    Molecular_Weight:             396.259
##########                DOCK_Rotatable_Bonds:                   5
##########                       Formal_Charge:          -0.0099998
##########                     HBond_Acceptors:                   6
##########                        HBond_Donors:                   1
##########                         Heavy_Atoms:                  24
##########                          Grid_Score:          -27.736986
##########                     Grid_vdw_energy:          -27.195351
##########                      Grid_es_energy:           -0.541635
##########           Internal_energy_repulsive:            7.942564

@<TRIPOS>MOLECULE
ZINC000885154703
 43 45 1 0 0
SMALL
USER_CHARGES


@<TRIPOS>ATOM
      1 C1        -15.0194   -2.6035   58.4461 C.3     1  ZINC000885154703   -0.1500
      2 C2        -14.0772   -3.6751   58.9983 C.3     1  ZINC000885154703   -0.0300
      3 C3        -12.7332   -3.0597   59.2915 C.2     1  ZINC000885154703    0.1700
      4 N4        -12.3510   -2.5508   60.4243 N.2     1  ZINC000885154703   -0.3800
      5 O5        -11.2138   -2.1377   60.3367 O.3     1  ZINC000885154703    0.0800
      6 C6        -10.7486   -2.3503   59.1021 C.2     1  ZINC000885154703    0.1800
      7 C7         -9.3817   -1.9855   58.5830 C.3     1  ZINC000885154703    0.0000
      8 H8         -8.7051   -2.8340   58.6851 H       1  ZINC000885154703    0.1300
      9 C9         -8.8284   -0.7722   59.3585 C.3     1  ZINC000885154703   -0.1200
     10 C10        -8.0712    0.0506   58.2866 C.3     1  ZINC000885154703   -0.1300
     11 C11        -8.9748   -0.1012   57.0379 C.3     1  ZINC000885154703    0.1400
     12 H12        -9.8139    0.5927   57.0877 H       1  ZINC000885154703    0.1000
     13 N13        -8.2000    0.1202   55.8144 N.am    1  ZINC000885154703   -0.7100
     14 C14        -8.0146    1.3722   55.3514 C.2     1  ZINC000885154703    0.5700
     15 O15        -8.4916    2.3179   55.9482 O.2     1  ZINC000885154703   -0.5100
     16 C16        -7.2320    1.5955   54.1189 C.ar    1  ZINC000885154703   -0.1600
     17 C17        -7.7730    1.2629   52.8732 C.ar    1  ZINC000885154703    0.1500
     18 F18        -9.0143    0.7358   52.7926 F       1  ZINC000885154703   -0.1200
     19 C19        -7.0336    1.4756   51.7237 C.ar    1  ZINC000885154703   -0.1500
     20 C20        -5.7638    2.0147   51.8055 C.ar    1  ZINC000885154703   -0.0400
     21 C21        -5.2225    2.3462   53.0370 C.ar    1  ZINC000885154703   -0.1100
     22 Br22       -3.4838    3.0831   53.1348 Br      1  ZINC000885154703   -0.0300
     23 C23        -5.9502    2.1452   54.1914 C.ar    1  ZINC000885154703    0.0100
     24 C24        -5.3587    2.5073   55.5294 C.3     1  ZINC000885154703   -0.1300
     25 C25        -9.4746   -1.5601   57.1072 C.3     1  ZINC000885154703   -0.1300
     26 N26       -11.7070   -2.9416   58.4302 N.2     1  ZINC000885154703   -0.4800
     27 H27       -15.1367   -1.8085   59.1826 H       1  ZINC000885154703    0.0600
     28 H28       -14.6012   -2.1899   57.5285 H       1  ZINC000885154703    0.0600
     29 H29       -15.9915   -3.0486   58.2340 H       1  ZINC000885154703    0.0700
     30 H30       -14.4955   -4.0887   59.9160 H       1  ZINC000885154703    0.1000
     31 H31       -13.9599   -4.4702   58.2619 H       1  ZINC000885154703    0.0900
     32 H32        -9.6439   -0.1866   59.7831 H       1  ZINC000885154703    0.0800
     33 H33        -8.1446   -1.0995   60.1417 H       1  ZINC000885154703    0.0900
     34 H34        -7.9959    1.0964   58.5843 H       1  ZINC000885154703    0.0800
     35 H35        -7.0833   -0.3717   58.1023 H       1  ZINC000885154703    0.0800
     36 H36        -7.8204   -0.6345   55.3376 H       1  ZINC000885154703    0.4000
     37 H37        -7.4494    1.2195   50.7604 H       1  ZINC000885154703    0.1500
     38 H38        -5.1905    2.1781   50.9050 H       1  ZINC000885154703    0.1500
     39 H39        -5.6086    3.5408   55.7693 H       1  ZINC000885154703    0.0900
     40 H40        -5.7646    1.8479   56.2965 H       1  ZINC000885154703    0.0800
     41 H41        -4.2753    2.3952   55.4899 H       1  ZINC000885154703    0.0900
     42 H42        -8.8425   -2.2008   56.4923 H       1  ZINC000885154703    0.0900
     43 H43       -10.5084   -1.6172   56.7666 H       1  ZINC000885154703    0.0800
@<TRIPOS>BOND
     1     1     2    1
     2     1    27    1
     3     1    28    1
     4     1    29    1
     5     2     3    1
     6     2    30    1
     7     2    31    1
     8     3    26    1
     9     3     4    2
    10     4     5    1
    11     5     6    1
    12     6     7    1
    13     6    26    2
    14     7     8    1
    15     7    25    1
    16     7     9    1
    17     9    10    1
    18     9    32    1
    19     9    33    1
    20    10    11    1
    21    10    34    1
    22    10    35    1
    23    11    12    1
    24    11    13    1
    25    11    25    1
    26    13    14   am
    27    13    36    1
    28    14    15    2
    29    14    16    1
    30    16    23   ar
    31    16    17   ar
    32    17    18    1
    33    17    19   ar
    34    19    20   ar
    35    19    37    1
    36    20    21   ar
    37    20    38    1
    38    21    22    1
    39    21    23   ar
    40    23    24    1
    41    24    39    1
    42    24    40    1
    43    24    41    1
    44    25    42    1
    45    25    43    1
@<TRIPOS>SUBSTRUCTURE
     1 ZINC000885154703        1 TEMP              0 ****  ****    0 ROOT


##########                                Name:    ZINC000435292384
##########                DOCK_Rotatable_Bonds:                   6
##########                         Heavy_Atoms:                  22
##########                    Molecular_Weight:             326.503
##########                DOCK_Rotatable_Bonds:                   6
##########                       Formal_Charge:         -0.00999993
##########                     HBond_Acceptors:                   5
##########                        HBond_Donors:                   0
##########                         Heavy_Atoms:                  22
##########                          Grid_Score:          -27.727814
##########                     Grid_vdw_energy:          -27.552734
##########                      Grid_es_energy:           -0.175079
##########           Internal_energy_repulsive:           20.049166

@<TRIPOS>MOLECULE
ZINC000435292384
 52 53 1 0 0
SMALL
USER_CHARGES


@<TRIPOS>ATOM
      1 C1         -2.1501    2.0021   46.3025 C.3     1  ZINC000435292384   -0.1500
      2 C2         -1.9450    2.3976   47.7661 C.3     1  ZINC000435292384   -0.1200
      3 C3         -3.2448    2.1743   48.5417 C.3     1  ZINC000435292384   -0.1400
      4 C4         -3.1575    2.8791   49.8969 C.3     1  ZINC000435292384    0.1600
      5 H5         -2.7733    3.8895   49.7568 H       1  ZINC000435292384    0.0900
      6 C6         -2.2171    2.0991   50.8178 C.3     1  ZINC000435292384   -0.1700
      7 N7         -4.4907    2.9428   50.5010 N.am    1  ZINC000435292384   -0.6100
      8 C8         -5.2103    1.7843   51.0432 C.3     1  ZINC000435292384    0.1200
      9 C9         -6.3242    2.3726   51.9373 C.3     1  ZINC000435292384   -0.1300
     10 H10        -5.9900    2.4584   52.9712 H       1  ZINC000435292384    0.1100
     11 C11        -7.5813    1.5464   51.8465 C.2     1  ZINC000435292384    0.5200
     12 O12        -7.7480    0.7972   50.9075 O.2     1  ZINC000435292384   -0.5200
     13 N13        -8.5202    1.6401   52.8088 N.am    1  ZINC000435292384   -0.6000
     14 C14        -9.7398    0.8172   52.6900 C.3     1  ZINC000435292384    0.1000
     15 C15       -10.1534    0.1950   54.0360 C.3     1  ZINC000435292384   -0.1300
     16 C16        -8.9328   -0.2840   54.7826 C.3     1  ZINC000435292384   -0.1100
     17 C17        -8.4325    0.8278   55.6998 C.3     1  ZINC000435292384   -0.1200
     18 C18        -7.5400    1.7972   55.0460 C.3     1  ZINC000435292384   -0.0700
     19 H19        -6.6832    1.2714   54.6246 H       1  ZINC000435292384    0.0900
     20 S20        -6.9613    3.0023   56.2721 S.3     1  ZINC000435292384   -0.2500
     21 C21        -5.5168    2.1817   57.0006 C.3     1  ZINC000435292384   -0.1200
     22 C22        -8.2886    2.5382   53.9179 C.3     1  ZINC000435292384    0.1400
     23 C23        -6.5316    3.7685   51.3052 C.3     1  ZINC000435292384   -0.1400
     24 C24        -5.2094    4.0707   50.6351 C.2     1  ZINC000435292384    0.5200
     25 O25        -4.8530    5.1696   50.2659 O.2     1  ZINC000435292384   -0.5200
     26 H26        -1.2242    2.1612   45.7498 H       1  ZINC000435292384    0.0500
     27 H27        -2.4306    0.9503   46.2462 H       1  ZINC000435292384    0.0500
     28 H28        -2.9418    2.6130   45.8685 H       1  ZINC000435292384    0.0500
     29 H29        -1.1534    1.7868   48.2001 H       1  ZINC000435292384    0.0600
     30 H30        -1.6645    3.4495   47.8223 H       1  ZINC000435292384    0.0600
     31 H31        -4.0814    2.5813   47.9738 H       1  ZINC000435292384    0.0800
     32 H32        -3.3964    1.1061   48.6969 H       1  ZINC000435292384    0.0800
     33 H33        -2.6012    1.0887   50.9578 H       1  ZINC000435292384    0.0700
     34 H34        -1.2252    2.0516   50.3683 H       1  ZINC000435292384    0.0700
     35 H35        -2.1549    2.6012   51.7832 H       1  ZINC000435292384    0.0600
     36 H36        -5.6462    1.1985   50.2338 H       1  ZINC000435292384    0.0900
     37 H37        -4.5370    1.1661   51.6369 H       1  ZINC000435292384    0.0800
     38 H38       -10.5543    1.4423   52.3240 H       1  ZINC000435292384    0.0700
     39 H39        -9.5589    0.0179   51.9713 H       1  ZINC000435292384    0.0900
     40 H40       -10.6735    0.9424   54.6352 H       1  ZINC000435292384    0.0700
     41 H41       -10.8202   -0.6481   53.8548 H       1  ZINC000435292384    0.0800
     42 H42        -9.1914   -1.1589   55.3791 H       1  ZINC000435292384    0.0700
     43 H43        -8.1508   -0.5471   54.0702 H       1  ZINC000435292384    0.0600
     44 H44        -9.2950    1.3640   56.0959 H       1  ZINC000435292384    0.0800
     45 H45        -7.8984    0.3738   56.5345 H       1  ZINC000435292384    0.0600
     46 H46        -5.8242    1.2388   57.4527 H       1  ZINC000435292384    0.0800
     47 H47        -4.7782    1.9879   56.2227 H       1  ZINC000435292384    0.0800
     48 H48        -5.0799    2.8254   57.7641 H       1  ZINC000435292384    0.1000
     49 H49        -7.6895    3.3832   53.5787 H       1  ZINC000435292384    0.0900
     50 H50        -9.2456    2.9001   54.2941 H       1  ZINC000435292384    0.0900
     51 H51        -7.3375    3.7392   50.5718 H       1  ZINC000435292384    0.1100
     52 H52        -6.7433    4.5089   52.0765 H       1  ZINC000435292384    0.1100
@<TRIPOS>BOND
     1     1     2    1
     2     1    26    1
     3     1    27    1
     4     1    28    1
     5     2     3    1
     6     2    29    1
     7     2    30    1
     8     3     4    1
     9     3    31    1
    10     3    32    1
    11     4     5    1
    12     4     6    1
    13     4     7    1
    14     6    33    1
    15     6    34    1
    16     6    35    1
    17     7    24   am
    18     7     8    1
    19     8     9    1
    20     8    36    1
    21     8    37    1
    22     9    10    1
    23     9    11    1
    24     9    23    1
    25    11    12    2
    26    11    13   am
    27    13    22    1
    28    13    14    1
    29    14    15    1
    30    14    38    1
    31    14    39    1
    32    15    16    1
    33    15    40    1
    34    15    41    1
    35    16    17    1
    36    16    42    1
    37    16    43    1
    38    17    18    1
    39    17    44    1
    40    17    45    1
    41    18    19    1
    42    18    20    1
    43    18    22    1
    44    20    21    1
    45    21    46    1
    46    21    47    1
    47    21    48    1
    48    22    49    1
    49    22    50    1
    50    23    24    1
    51    23    51    1
    52    23    52    1
    53    24    25    2
@<TRIPOS>SUBSTRUCTURE
     1 ZINC000435292384        1 TEMP              0 ****  ****    0 ROOT


##########                                Name:    ZINC001272744746
##########                DOCK_Rotatable_Bonds:                   6
##########                         Heavy_Atoms:                  25
##########                    Molecular_Weight:             348.417
##########                DOCK_Rotatable_Bonds:                   6
##########                       Formal_Charge:           0.0299999
##########                     HBond_Acceptors:                   6
##########                        HBond_Donors:                   1
##########                         Heavy_Atoms:                  25
##########                          Grid_Score:          -27.720366
##########                     Grid_vdw_energy:          -26.333982
##########                      Grid_es_energy:           -1.386382
##########           Internal_energy_repulsive:           31.558990

@<TRIPOS>MOLECULE
ZINC001272744746
 50 52 1 0 0
SMALL
USER_CHARGES


@<TRIPOS>ATOM
      1 C1         -3.0822    3.1091   55.7451 C.2     1  ZINC001272744746   -0.1700
      2 C2         -4.3723    3.0241   55.9561 C.2     1  ZINC001272744746   -0.1700
      3 C3         -4.9417    3.3932   57.3016 C.3     1  ZINC001272744746    0.1500
      4 N4         -6.3395    2.9604   57.3757 N.am    1  ZINC001272744746   -0.6100
      5 C5         -6.8297    1.8873   58.2510 C.3     1  ZINC001272744746    0.0700
      6 C6         -8.3560    2.0716   58.3054 C.3     1  ZINC001272744746    0.1100
      7 C7         -8.6482    2.8129   56.9880 C.3     1  ZINC001272744746   -0.1500
      8 C8         -7.3397    3.4983   56.6551 C.2     1  ZINC001272744746    0.5200
      9 O9         -7.2109    4.3964   55.8502 O.2     1  ZINC001272744746   -0.5200
     10 C10        -8.7496    2.9294   59.4999 C.3     1  ZINC001272744746   -0.1000
     11 C11        -8.4279    2.1753   60.7948 C.3     1  ZINC001272744746   -0.1200
     12 C12        -9.1468    0.8234   60.7779 C.3     1  ZINC001272744746   -0.1200
     13 C13        -8.7018    0.0261   59.5499 C.3     1  ZINC001272744746    0.0500
     14 N14        -9.0324    0.7783   58.3312 N.3     1  ZINC001272744746   -0.5100
     15 C15        -8.7184   -0.0042   57.1282 C.3     1  ZINC001272744746    0.0800
     16 C16        -8.6272   -1.4646   57.4885 C.ar    1  ZINC001272744746   -0.0200
     17 C17        -7.4152   -2.0048   57.8753 C.ar    1  ZINC001272744746   -0.1700
     18 C18        -7.3267   -3.3461   58.2071 C.ar    1  ZINC001272744746    0.1200
     19 F19        -6.1410   -3.8722   58.5849 F       1  ZINC001272744746   -0.1200
     20 C20        -8.4562   -4.1495   58.1520 C.ar    1  ZINC001272744746    0.0400
     21 O21        -8.3720   -5.4676   58.4781 O.3     1  ZINC001272744746   -0.4700
     22 C22        -9.6752   -3.6040   57.7630 C.ar    1  ZINC001272744746    0.1300
     23 O23       -10.7854   -4.3874   57.7078 O.3     1  ZINC001272744746   -0.3000
     24 C24       -12.0082   -3.7537   57.3265 C.3     1  ZINC001272744746    0.0200
     25 C25        -9.7573   -2.2596   57.4368 C.ar    1  ZINC001272744746   -0.1800
     26 H26        -2.4266    3.4437   56.5354 H       1  ZINC001272744746    0.1000
     27 H27        -2.6736    2.8404   54.7822 H       1  ZINC001272744746    0.1000
     28 H28        -5.0279    2.6895   55.1657 H       1  ZINC001272744746    0.1100
     29 H29        -4.3671    2.9017   58.0866 H       1  ZINC001272744746    0.0900
     30 H30        -4.8884    4.4738   57.4347 H       1  ZINC001272744746    0.0800
     31 H31        -6.5817    0.9132   57.8296 H       1  ZINC001272744746    0.0700
     32 H32        -6.4015    1.9881   59.2484 H       1  ZINC001272744746    0.0900
     33 H33        -8.9236    2.1063   56.2050 H       1  ZINC001272744746    0.1100
     34 H34        -9.4370    3.5513   57.1320 H       1  ZINC001272744746    0.1100
     35 H35        -8.1908    3.8650   59.4756 H       1  ZINC001272744746    0.0700
     36 H36        -9.8177    3.1421   59.4588 H       1  ZINC001272744746    0.0800
     37 H37        -7.3519    2.0152   60.8657 H       1  ZINC001272744746    0.0600
     38 H38        -8.7680    2.7585   61.6504 H       1  ZINC001272744746    0.0700
     39 H39        -8.8976    0.2678   61.6820 H       1  ZINC001272744746    0.0700
     40 H40       -10.2240    0.9850   60.7356 H       1  ZINC001272744746    0.0700
     41 H41        -7.6253   -0.1388   59.5943 H       1  ZINC001272744746    0.0400
     42 H42        -9.2161   -0.9348   59.5346 H       1  ZINC001272744746    0.0900
     43 H43        -9.5044    0.1387   56.3865 H       1  ZINC001272744746    0.1000
     44 H44        -7.7656    0.3288   56.7166 H       1  ZINC001272744746    0.0600
     45 H45        -6.5356   -1.3798   57.9183 H       1  ZINC001272744746    0.1400
     46 H46        -7.4867   -5.7511   58.7444 H       1  ZINC001272744746    0.3900
     47 H47       -11.9009   -3.3272   56.3291 H       1  ZINC001272744746    0.0600
     48 H48       -12.8127   -4.4892   57.3224 H       1  ZINC001272744746    0.1100
     49 H49       -12.2439   -2.9615   58.0370 H       1  ZINC001272744746    0.0600
     50 H50       -10.7029   -1.8343   57.1346 H       1  ZINC001272744746    0.1400
@<TRIPOS>BOND
     1     1     2    2
     2     1    26    1
     3     1    27    1
     4     2     3    1
     5     2    28    1
     6     3     4    1
     7     3    29    1
     8     3    30    1
     9     4     8   am
    10     4     5    1
    11     5     6    1
    12     5    31    1
    13     5    32    1
    14     6    14    1
    15     6     7    1
    16     6    10    1
    17     7     8    1
    18     7    33    1
    19     7    34    1
    20     8     9    2
    21    10    11    1
    22    10    35    1
    23    10    36    1
    24    11    12    1
    25    11    37    1
    26    11    38    1
    27    12    13    1
    28    12    39    1
    29    12    40    1
    30    13    14    1
    31    13    41    1
    32    13    42    1
    33    14    15    1
    34    15    16    1
    35    15    43    1
    36    15    44    1
    37    16    25   ar
    38    16    17   ar
    39    17    18   ar
    40    17    45    1
    41    18    19    1
    42    18    20   ar
    43    20    21    1
    44    20    22   ar
    45    21    46    1
    46    22    23    1
    47    22    25   ar
    48    23    24    1
    49    24    47    1
    50    24    48    1
    51    24    49    1
    52    25    50    1
@<TRIPOS>SUBSTRUCTURE
     1 ZINC001272744746        1 TEMP              0 ****  ****    0 ROOT


##########                                Name:    ZINC001060620810
##########                DOCK_Rotatable_Bonds:                   5
##########                         Heavy_Atoms:                  24
##########                    Molecular_Weight:             332.421
##########                DOCK_Rotatable_Bonds:                   5
##########                       Formal_Charge:           0.0299998
##########                     HBond_Acceptors:                   6
##########                        HBond_Donors:                   2
##########                         Heavy_Atoms:                  24
##########                          Grid_Score:          -27.705164
##########                     Grid_vdw_energy:          -26.802088
##########                      Grid_es_energy:           -0.903077
##########           Internal_energy_repulsive:            8.589396

@<TRIPOS>MOLECULE
ZINC001060620810
 49 52 1 0 0
SMALL
USER_CHARGES


@<TRIPOS>ATOM
      1 O1         -1.5833    3.3124   49.0711 O.2     1  ZINC001060620810   -0.5400
      2 C2         -1.9536    2.1930   48.7865 C.2     1  ZINC001060620810    0.5500
      3 N3         -2.9889    1.6375   49.4468 N.am    1  ZINC001060620810   -0.7200
      4 C4         -3.6683    2.3865   50.5069 C.3     1  ZINC001060620810    0.1400
      5 C5         -4.8417    3.1655   49.9092 C.3     1  ZINC001060620810   -0.1300
      6 C6         -5.5512    3.9477   51.0163 C.3     1  ZINC001060620810   -0.1300
      7 C7         -6.0720    2.9740   52.0754 C.3     1  ZINC001060620810    0.1600
      8 N8         -7.0149    2.0386   51.4571 N.pl3   1  ZINC001060620810   -0.6900
      9 C9         -7.9274    1.3539   52.2431 C.ar    1  ZINC001060620810    0.5600
     10 N10        -7.9573    1.5838   53.5472 N.ar    1  ZINC001060620810   -0.5400
     11 C11        -8.8192    0.9510   54.3263 C.ar    1  ZINC001060620810    0.1700
     12 C12        -9.6907    0.0298   53.7625 C.ar    1  ZINC001060620810   -0.0700
     13 F13       -10.5805   -0.6380   54.5291 F       1  ZINC001060620810   -0.1300
     14 C14        -9.6280   -0.1898   52.3937 C.ar    1  ZINC001060620810    0.1800
     15 N15        -8.7448    0.4815   51.6728 N.ar    1  ZINC001060620810   -0.5500
     16 C16        -4.8987    2.1949   52.6730 C.3     1  ZINC001060620810   -0.1200
     17 C17        -4.1892    1.4128   51.5658 C.3     1  ZINC001060620810   -0.1300
     18 C18        -1.2559    1.4233   47.6949 C.3     1  ZINC001060620810   -0.1500
     19 C19        -0.6254    0.1009   48.1114 C.3     1  ZINC001060620810   -0.1500
     20 C20         0.2538    1.3001   47.8287 C.3     1  ZINC001060620810   -0.1100
     21 H21         0.7175    1.7651   48.6986 H       1  ZINC001060620810    0.1100
     22 C22         1.1423    1.2466   46.5899 C.3     1  ZINC001060620810   -0.0900
     23 C23         0.3979    1.7979   45.3736 C.3     1  ZINC001060620810   -0.1200
     24 C24        -0.9349    1.0529   45.2375 C.3     1  ZINC001060620810   -0.1200
     25 C25        -1.8891    1.5595   46.3190 C.3     1  ZINC001060620810   -0.0800
     26 H26        -3.2842    0.7418   49.2201 H       1  ZINC001060620810    0.4000
     27 H27        -2.9667    3.0825   50.9669 H       1  ZINC001060620810    0.0900
     28 H28        -4.4707    3.8592   49.1548 H       1  ZINC001060620810    0.0700
     29 H29        -5.5432    2.4696   49.4492 H       1  ZINC001060620810    0.0600
     30 H30        -6.3872    4.5027   50.5905 H       1  ZINC001060620810    0.0700
     31 H31        -4.8497    4.6437   51.4763 H       1  ZINC001060620810    0.0800
     32 H32        -6.5775    3.5313   52.8640 H       1  ZINC001060620810    0.1000
     33 H33        -7.0004    1.8988   50.4973 H       1  ZINC001060620810    0.4100
     34 H34        -8.8412    1.1455   55.3884 H       1  ZINC001060620810    0.1800
     35 H35       -10.2914   -0.9000   51.9229 H       1  ZINC001060620810    0.1800
     36 H36        -5.2697    1.5013   53.4274 H       1  ZINC001060620810    0.0800
     37 H37        -4.1972    2.8910   53.1329 H       1  ZINC001060620810    0.0900
     38 H38        -4.8907    0.7169   51.1059 H       1  ZINC001060620810    0.0700
     39 H39        -3.3532    0.8578   51.9916 H       1  ZINC001060620810    0.0800
     40 H40        -0.7321   -0.2024   49.1529 H       1  ZINC001060620810    0.1000
     41 H41        -0.6259   -0.7094   47.3823 H       1  ZINC001060620810    0.1100
     42 H42         1.4131    0.2068   46.4068 H       1  ZINC001060620810    0.0700
     43 H43         2.0469    1.8318   46.7556 H       1  ZINC001060620810    0.0700
     44 H44         0.9972    1.6428   44.4765 H       1  ZINC001060620810    0.0700
     45 H45         0.2095    2.8627   45.5115 H       1  ZINC001060620810    0.0700
     46 H46        -0.7708   -0.0171   45.3662 H       1  ZINC001060620810    0.0700
     47 H47        -1.3624    1.2444   44.2533 H       1  ZINC001060620810    0.0700
     48 H48        -2.8101    0.9772   46.2877 H       1  ZINC001060620810    0.0700
     49 H49        -2.1202    2.6081   46.1316 H       1  ZINC001060620810    0.0700
@<TRIPOS>BOND
     1     1     2    2
     2     2     3   am
     3     2    18    1
     4     3     4    1
     5     3    26    1
     6     4    17    1
     7     4     5    1
     8     4    27    1
     9     5     6    1
    10     5    28    1
    11     5    29    1
    12     6     7    1
    13     6    30    1
    14     6    31    1
    15     7     8    1
    16     7    16    1
    17     7    32    1
    18     8     9    1
    19     8    33    1
    20     9    15   ar
    21     9    10   ar
    22    10    11   ar
    23    11    12   ar
    24    11    34    1
    25    12    13    1
    26    12    14   ar
    27    14    15   ar
    28    14    35    1
    29    16    17    1
    30    16    36    1
    31    16    37    1
    32    17    38    1
    33    17    39    1
    34    18    20    1
    35    18    25    1
    36    18    19    1
    37    19    20    1
    38    19    40    1
    39    19    41    1
    40    20    21    1
    41    20    22    1
    42    22    23    1
    43    22    42    1
    44    22    43    1
    45    23    24    1
    46    23    44    1
    47    23    45    1
    48    24    25    1
    49    24    46    1
    50    24    47    1
    51    25    48    1
    52    25    49    1
@<TRIPOS>SUBSTRUCTURE
     1 ZINC001060620810        1 TEMP              0 ****  ****    0 ROOT


##########                                Name:    ZINC000010935976
##########                DOCK_Rotatable_Bonds:                   3
##########                         Heavy_Atoms:                  26
##########                    Molecular_Weight:             391.558
##########                DOCK_Rotatable_Bonds:                   3
##########                       Formal_Charge:         -0.00999979
##########                     HBond_Acceptors:                   7
##########                        HBond_Donors:                   1
##########                         Heavy_Atoms:                  26
##########                          Grid_Score:          -27.685360
##########                     Grid_vdw_energy:          -27.456310
##########                      Grid_es_energy:           -0.229049
##########           Internal_energy_repulsive:          127.980354

@<TRIPOS>MOLECULE
ZINC000010935976
 51 54 1 0 0
SMALL
USER_CHARGES


@<TRIPOS>ATOM
      1 C1         -8.0943    1.2585   52.8166 C.3     1  ZINC000010935976   -0.0800
      2 C2         -6.9325    1.6826   51.9556 C.2     1  ZINC000010935976   -0.2100
      3 C3         -5.9170    2.4083   52.3811 C.2     1  ZINC000010935976   -0.0400
      4 C4         -5.8091    2.8995   53.8018 C.3     1  ZINC000010935976   -0.1000
      5 C5         -4.9112    2.6972   51.3758 C.2     1  ZINC000010935976   -0.2300
      6 C6         -5.2295    2.1374   50.1404 C.2     1  ZINC000010935976    0.0900
      7 N7         -4.3974    2.3119   49.0945 N.2     1  ZINC000010935976   -0.4900
      8 C8         -3.2865    2.9996   49.2078 C.2     1  ZINC000010935976    0.3400
      9 S9         -2.2448    3.1888   47.7993 S.3     1  ZINC000010935976    0.0500
     10 C10        -2.3315    1.5146   47.1171 C.3     1  ZINC000010935976   -0.1000
     11 H11        -3.3739    1.2074   47.0319 H       1  ZINC000010935976    0.1400
     12 C12        -1.5832    0.5455   48.0356 C.3     1  ZINC000010935976   -0.1000
     13 C13        -0.3751    1.2204   48.6594 C.3     1  ZINC000010935976   -0.1300
     14 C14         0.7108    1.5775   47.6610 C.3     1  ZINC000010935976   -0.1400
     15 C15         0.2318    2.6683   46.7012 C.3     1  ZINC000010935976    0.0700
     16 N16        -0.4705    2.0304   45.5759 N.am    1  ZINC000010935976   -0.7200
     17 C17        -1.6799    1.4877   45.7504 C.2     1  ZINC000010935976    0.5400
     18 O18        -2.2507    0.9694   44.8142 O.2     1  ZINC000010935976   -0.5200
     19 N19        -2.9182    3.5728   50.3904 N.am    1  ZINC000010935976   -0.5100
     20 C20        -1.6692    4.3338   50.4745 C.3     1  ZINC000010935976    0.1200
     21 C21        -1.9745    5.8441   50.5501 C.3     1  ZINC000010935976   -0.1300
     22 C22        -1.9530    6.1604   52.0662 C.3     1  ZINC000010935976   -0.1300
     23 C23        -0.7922    5.2750   52.5837 C.3     1  ZINC000010935976   -0.1100
     24 C24        -0.9175    3.9720   51.7674 C.3     1  ZINC000010935976   -0.1200
     25 C25        -3.6988    3.4427   51.4807 C.2     1  ZINC000010935976    0.5600
     26 O26        -3.3745    3.9523   52.5396 O.2     1  ZINC000010935976   -0.5000
     27 S27        -6.7538    1.2679   50.2614 S.3     1  ZINC000010935976    0.2100
     28 H28        -8.7891    0.6648   52.2226 H       1  ZINC000010935976    0.0700
     29 H29        -7.7285    0.6617   53.6521 H       1  ZINC000010935976    0.0800
     30 H30        -8.6056    2.1424   53.1979 H       1  ZINC000010935976    0.0800
     31 H31        -5.2790    2.1605   54.4025 H       1  ZINC000010935976    0.0700
     32 H32        -5.2623    3.8422   53.8197 H       1  ZINC000010935976    0.0800
     33 H33        -6.8082    3.0510   54.2106 H       1  ZINC000010935976    0.0700
     34 H34        -2.2545    0.2094   48.8259 H       1  ZINC000010935976    0.0900
     35 H35        -1.2532   -0.3164   47.4555 H       1  ZINC000010935976    0.0900
     36 H36        -0.7045    2.1328   49.1565 H       1  ZINC000010935976    0.0700
     37 H37         0.0479    0.5523   49.4095 H       1  ZINC000010935976    0.0800
     38 H38         1.5891    1.9340   48.1990 H       1  ZINC000010935976    0.0800
     39 H39         0.9780    0.6890   47.0891 H       1  ZINC000010935976    0.0700
     40 H40        -0.4487    3.3414   47.2228 H       1  ZINC000010935976    0.1100
     41 H41         1.0888    3.2285   46.3272 H       1  ZINC000010935976    0.0900
     42 H42        -0.0544    2.0054   44.7000 H       1  ZINC000010935976    0.4000
     43 H43        -1.0440    4.1215   49.6072 H       1  ZINC000010935976    0.1000
     44 H44        -1.2054    6.4152   50.0303 H       1  ZINC000010935976    0.0800
     45 H45        -2.9577    6.0560   50.1301 H       1  ZINC000010935976    0.0700
     46 H46        -1.7399    7.2156   52.2376 H       1  ZINC000010935976    0.0600
     47 H47        -2.8950    5.8745   52.5339 H       1  ZINC000010935976    0.1100
     48 H48         0.1678    5.7543   52.3922 H       1  ZINC000010935976    0.0600
     49 H49        -0.9127    5.0716   53.6477 H       1  ZINC000010935976    0.0700
     50 H50        -1.4820    3.2303   52.3324 H       1  ZINC000010935976    0.0800
     51 H51         0.0729    3.5849   51.5276 H       1  ZINC000010935976    0.0700
@<TRIPOS>BOND
     1     1     2    1
     2     1    28    1
     3     1    29    1
     4     1    30    1
     5     2    27    1
     6     2     3    2
     7     3     4    1
     8     3     5    1
     9     4    31    1
    10     4    32    1
    11     4    33    1
    12     5    25    1
    13     5     6    2
    14     6     7    1
    15     6    27    1
    16     7     8    2
    17     8     9    1
    18     8    19    1
    19     9    10    1
    20    10    11    1
    21    10    17    1
    22    10    12    1
    23    12    13    1
    24    12    34    1
    25    12    35    1
    26    13    14    1
    27    13    36    1
    28    13    37    1
    29    14    15    1
    30    14    38    1
    31    14    39    1
    32    15    16    1
    33    15    40    1
    34    15    41    1
    35    16    17   am
    36    16    42    1
    37    17    18    2
    38    19    20    1
    39    19    25   am
    40    20    24    1
    41    20    21    1
    42    20    43    1
    43    21    22    1
    44    21    44    1
    45    21    45    1
    46    22    23    1
    47    22    46    1
    48    22    47    1
    49    23    24    1
    50    23    48    1
    51    23    49    1
    52    24    50    1
    53    24    51    1
    54    25    26    2
@<TRIPOS>SUBSTRUCTURE
     1 ZINC000010935976        1 TEMP              0 ****  ****    0 ROOT


##########                                Name:    ZINC000863216249
##########                DOCK_Rotatable_Bonds:                   5
##########                         Heavy_Atoms:                  23
##########                    Molecular_Weight:             396.351
##########                DOCK_Rotatable_Bonds:                   5
##########                       Formal_Charge:         -0.00999944
##########                     HBond_Acceptors:                   5
##########                        HBond_Donors:                   1
##########                         Heavy_Atoms:                  23
##########                          Grid_Score:          -27.684416
##########                     Grid_vdw_energy:          -26.793449
##########                      Grid_es_energy:           -0.890966
##########           Internal_energy_repulsive:           25.611443

@<TRIPOS>MOLECULE
ZINC000863216249
 45 48 1 0 0
SMALL
USER_CHARGES


@<TRIPOS>ATOM
      1 S1         -9.4550   -0.0619   52.3223 S.2     1  ZINC000863216249   -0.5900
      2 C2         -8.2255    0.8292   53.1128 C.2     1  ZINC000863216249    0.5600
      3 N3         -7.4305    1.6555   52.4044 N.am    1  ZINC000863216249   -0.6800
      4 C4         -7.6146    1.7865   50.9570 C.3     1  ZINC000863216249    0.1200
      5 C5         -6.8540    3.0156   50.4553 C.3     1  ZINC000863216249    0.0400
      6 N6         -5.4422    2.9115   50.8476 N.3     1  ZINC000863216249   -0.5300
      7 C7         -4.6903    4.1043   50.4311 C.3     1  ZINC000863216249    0.0000
      8 C8         -3.2417    3.9811   50.9108 C.3     1  ZINC000863216249    0.0600
      9 O9         -2.6741    2.7750   50.3927 O.3     1  ZINC000863216249   -0.3800
     10 C10        -3.3811    1.5935   50.7794 C.3     1  ZINC000863216249    0.0600
     11 C11        -4.8312    1.6925   50.2983 C.3     1  ZINC000863216249    0.0200
     12 N12        -8.0560    0.7088   54.4446 N.am    1  ZINC000863216249   -0.5100
     13 C13        -8.8562   -0.1553   55.3196 C.3     1  ZINC000863216249    0.1200
     14 C14        -8.2783    0.0604   56.7218 C.3     1  ZINC000863216249   -0.1100
     15 C15        -9.1677    0.0682   57.9591 C.3     1  ZINC000863216249   -0.1500
     16 C16        -8.1802   -1.0792   57.7286 C.3     1  ZINC000863216249   -0.1500
     17 C17        -7.1626    1.0569   56.5410 C.ar    1  ZINC000863216249   -0.0700
     18 C18        -6.2902    1.6261   57.4484 C.ar    1  ZINC000863216249   -0.0800
     19 C19        -5.3370    2.5323   57.0230 C.ar    1  ZINC000863216249   -0.1000
     20 C20        -5.2573    2.8694   55.6836 C.ar    1  ZINC000863216249   -0.0700
     21 Br21       -3.9538    4.1083   55.0990 Br      1  ZINC000863216249   -0.0400
     22 C22        -6.1262    2.3040   54.7733 C.ar    1  ZINC000863216249   -0.0900
     23 C23        -7.0877    1.3845   55.1943 C.ar    1  ZINC000863216249    0.1400
     24 H24        -6.7363    2.1634   52.8531 H       1  ZINC000863216249    0.4000
     25 H25        -7.2325    0.8948   50.4599 H       1  ZINC000863216249    0.0900
     26 H26        -8.6756    1.8999   50.7345 H       1  ZINC000863216249    0.1000
     27 H27        -6.9263    3.0691   49.3690 H       1  ZINC000863216249    0.0900
     28 H28        -7.2875    3.9147   50.8931 H       1  ZINC000863216249    0.0400
     29 H29        -4.7082    4.1845   49.3442 H       1  ZINC000863216249    0.0500
     30 H30        -5.1448    4.9926   50.8698 H       1  ZINC000863216249    0.1000
     31 H31        -2.6667    4.8361   50.5552 H       1  ZINC000863216249    0.1000
     32 H32        -3.2200    3.9548   52.0003 H       1  ZINC000863216249    0.0600
     33 H33        -2.9068    0.7216   50.3288 H       1  ZINC000863216249    0.1000
     34 H34        -3.3635    1.4978   51.8650 H       1  ZINC000863216249    0.0600
     35 H35        -5.3883    0.8202   50.6401 H       1  ZINC000863216249    0.0900
     36 H36        -4.8513    1.7341   49.2093 H       1  ZINC000863216249    0.0500
     37 H37        -9.9043    0.1428   55.2915 H       1  ZINC000863216249    0.0900
     38 H38        -8.7499   -1.1986   55.0222 H       1  ZINC000863216249    0.0900
     39 H39        -8.9314    0.7859   58.7447 H       1  ZINC000863216249    0.1100
     40 H40       -10.2277   -0.1438   57.8187 H       1  ZINC000863216249    0.1100
     41 H41        -8.5907   -2.0458   57.4366 H       1  ZINC000863216249    0.1100
     42 H42        -7.2944   -1.1161   58.3626 H       1  ZINC000863216249    0.1100
     43 H43        -6.3535    1.3626   58.4939 H       1  ZINC000863216249    0.1400
     44 H44        -4.6563    2.9762   57.7344 H       1  ZINC000863216249    0.1400
     45 H45        -6.0593    2.5714   53.7290 H       1  ZINC000863216249    0.1900
@<TRIPOS>BOND
     1     1     2    2
     2     2     3   am
     3     2    12   am
     4     3     4    1
     5     3    24    1
     6     4     5    1
     7     4    25    1
     8     4    26    1
     9     5     6    1
    10     5    27    1
    11     5    28    1
    12     6    11    1
    13     6     7    1
    14     7     8    1
    15     7    29    1
    16     7    30    1
    17     8     9    1
    18     8    31    1
    19     8    32    1
    20     9    10    1
    21    10    11    1
    22    10    33    1
    23    10    34    1
    24    11    35    1
    25    11    36    1
    26    12    23    1
    27    12    13    1
    28    13    14    1
    29    13    37    1
    30    13    38    1
    31    14    16    1
    32    14    15    1
    33    14    17    1
    34    15    16    1
    35    15    39    1
    36    15    40    1
    37    16    41    1
    38    16    42    1
    39    17    23   ar
    40    17    18   ar
    41    18    19   ar
    42    18    43    1
    43    19    20   ar
    44    19    44    1
    45    20    21    1
    46    20    22   ar
    47    22    23   ar
    48    22    45    1
@<TRIPOS>SUBSTRUCTURE
     1 ZINC000863216249        1 TEMP              0 ****  ****    0 ROOT


##########                                Name:    ZINC000763800048
##########                DOCK_Rotatable_Bonds:                   8
##########                         Heavy_Atoms:                  23
##########                    Molecular_Weight:             329.783
##########                DOCK_Rotatable_Bonds:                   8
##########                       Formal_Charge:           0.0199994
##########                     HBond_Acceptors:                   5
##########                        HBond_Donors:                   1
##########                         Heavy_Atoms:                  23
##########                          Grid_Score:          -27.672991
##########                     Grid_vdw_energy:          -25.362047
##########                      Grid_es_energy:           -2.310944
##########           Internal_energy_repulsive:            3.473933

@<TRIPOS>MOLECULE
ZINC000763800048
 39 40 1 0 0
SMALL
USER_CHARGES


@<TRIPOS>ATOM
      1 C1         -7.1156   -1.2305   59.2355 C.3     1  ZINC000763800048    0.0400
      2 O2         -7.2237    0.1535   58.8100 O.3     1  ZINC000763800048   -0.3600
      3 C3         -7.6502    0.3742   57.5565 C.2     1  ZINC000763800048    0.4600
      4 O4         -7.9227   -0.5583   56.8382 O.2     1  ZINC000763800048   -0.4900
      5 C5         -7.7888    1.7849   57.0452 C.3     1  ZINC000763800048   -0.0700
      6 C6         -6.4265    2.3318   56.7042 C.ar    1  ZINC000763800048   -0.0600
      7 C7         -5.7413    3.1022   57.6254 C.ar    1  ZINC000763800048   -0.1200
      8 C8         -4.4908    3.6060   57.3164 C.ar    1  ZINC000763800048   -0.1000
      9 C9         -3.9223    3.3404   56.0863 C.ar    1  ZINC000763800048   -0.1100
     10 C10        -4.6080    2.5662   55.1587 C.ar    1  ZINC000763800048    0.1500
     11 N11        -4.0353    2.2953   53.9123 N.am    1  ZINC000763800048   -0.6700
     12 C12        -4.4851    2.9299   52.8117 C.2     1  ZINC000763800048    0.5500
     13 O13        -5.3898    3.7389   52.9028 O.2     1  ZINC000763800048   -0.5200
     14 C14        -3.8856    2.6463   51.5072 C.2     1  ZINC000763800048   -0.2100
     15 C15        -3.6211    3.6557   50.6528 C.2     1  ZINC000763800048   -0.0100
     16 C16        -3.0168    3.3707   49.3417 C.ar    1  ZINC000763800048   -0.0800
     17 C17        -1.6983    3.7554   49.0771 C.ar    1  ZINC000763800048   -0.0900
     18 C18        -1.1388    3.4852   47.8468 C.ar    1  ZINC000763800048   -0.1100
     19 C19        -1.8793    2.8347   46.8731 C.ar    1  ZINC000763800048   -0.0200
     20 Cl20       -1.1666    2.4991   45.3262 Cl      1  ZINC000763800048   -0.0600
     21 C21        -3.1858    2.4504   47.1282 C.ar    1  ZINC000763800048   -0.1100
     22 C22        -3.7563    2.7089   48.3561 C.ar    1  ZINC000763800048   -0.0800
     23 C23        -5.8614    2.0579   55.4740 C.ar    1  ZINC000763800048   -0.1300
     24 H24        -6.7612   -1.2673   60.2656 H       1  ZINC000763800048    0.1000
     25 H25        -8.0932   -1.7081   59.1705 H       1  ZINC000763800048    0.0600
     26 H26        -6.4113   -1.7552   58.5900 H       1  ZINC000763800048    0.0600
     27 H27        -8.4153    1.7883   56.1533 H       1  ZINC000763800048    0.1200
     28 H28        -8.2477    2.4066   57.8140 H       1  ZINC000763800048    0.1200
     29 H29        -6.1835    3.3115   58.5881 H       1  ZINC000763800048    0.1200
     30 H30        -3.9584    4.2080   58.0379 H       1  ZINC000763800048    0.1300
     31 H31        -2.9460    3.7343   55.8456 H       1  ZINC000763800048    0.1400
     32 H32        -3.3143    1.6505   53.8398 H       1  ZINC000763800048    0.4100
     33 H33        -3.6551    1.6287   51.2286 H       1  ZINC000763800048    0.1300
     34 H34        -3.8528    4.6733   50.9308 H       1  ZINC000763800048    0.1400
     35 H35        -1.1201    4.2631   49.8350 H       1  ZINC000763800048    0.1400
     36 H36        -0.1208    3.7816   47.6412 H       1  ZINC000763800048    0.1400
     37 H37        -3.7571    1.9438   46.3645 H       1  ZINC000763800048    0.1400
     38 H38        -4.7747    2.4085   48.5537 H       1  ZINC000763800048    0.1400
     39 H39        -6.3969    1.4554   54.7552 H       1  ZINC000763800048    0.1300
@<TRIPOS>BOND
     1     1     2    1
     2     1    24    1
     3     1    25    1
     4     1    26    1
     5     2     3    1
     6     3     4    2
     7     3     5    1
     8     5     6    1
     9     5    27    1
    10     5    28    1
    11     6    23   ar
    12     6     7   ar
    13     7     8   ar
    14     7    29    1
    15     8     9   ar
    16     8    30    1
    17     9    10   ar
    18     9    31    1
    19    10    11    1
    20    10    23   ar
    21    11    12   am
    22    11    32    1
    23    12    13    2
    24    12    14    1
    25    14    15    2
    26    14    33    1
    27    15    16    1
    28    15    34    1
    29    16    22   ar
    30    16    17   ar
    31    17    18   ar
    32    17    35    1
    33    18    19   ar
    34    18    36    1
    35    19    20    1
    36    19    21   ar
    37    21    22   ar
    38    21    37    1
    39    22    38    1
    40    23    39    1
@<TRIPOS>SUBSTRUCTURE
     1 ZINC000763800048        1 TEMP              0 ****  ****    0 ROOT


##########                                Name:    ZINC000443933644
##########                DOCK_Rotatable_Bonds:                   8
##########                         Heavy_Atoms:                  27
##########                    Molecular_Weight:             402.438
##########                DOCK_Rotatable_Bonds:                   8
##########                       Formal_Charge:          0.00999922
##########                     HBond_Acceptors:                   9
##########                        HBond_Donors:                   2
##########                         Heavy_Atoms:                  27
##########                          Grid_Score:          -27.641661
##########                     Grid_vdw_energy:          -25.749781
##########                      Grid_es_energy:           -1.891880
##########           Internal_energy_repulsive:           38.550091

@<TRIPOS>MOLECULE
ZINC000443933644
 48 49 1 0 0
SMALL
USER_CHARGES


@<TRIPOS>ATOM
      1 C1        -14.3297   -3.7654   58.4821 C.3     1  ZINC000443933644   -0.1500
      2 C2        -14.7439   -2.3187   58.2056 C.3     1  ZINC000443933644   -0.1400
      3 C3        -14.1126   -1.3986   59.2523 C.3     1  ZINC000443933644   -0.1000
      4 H4        -14.1053   -1.9002   60.2200 H       1  ZINC000443933644    0.1000
      5 C5        -14.9266   -0.1071   59.3534 C.3     1  ZINC000443933644   -0.1700
      6 C6        -12.6774   -1.0658   58.8396 C.3     1  ZINC000443933644    0.1200
      7 H7        -12.6226   -0.0245   58.5222 H       1  ZINC000443933644    0.1300
      8 N8        -12.2737   -1.9357   57.7320 N.am    1  ZINC000443933644   -1.1100
      9 S9        -11.6852   -1.2749   56.3323 S.o2    1  ZINC000443933644    2.6900
     10 O10       -11.2471   -2.3620   55.5286 O.2     1  ZINC000443933644   -0.9400
     11 O11       -12.6514   -0.3276   55.8985 O.2     1  ZINC000443933644   -0.9400
     12 C12       -10.2425   -0.3561   56.7555 C.ar    1  ZINC000443933644   -0.7000
     13 C13        -9.1584   -0.9970   57.3785 C.ar    1  ZINC000443933644    0.0500
     14 C14        -9.1973   -2.3705   57.6754 C.ar    1  ZINC000443933644   -0.1400
     15 C15        -8.1293   -2.9597   58.2792 C.ar    1  ZINC000443933644   -0.0800
     16 C16        -6.9943   -2.2212   58.6087 C.ar    1  ZINC000443933644   -0.1200
     17 C17        -6.9219   -0.8891   58.3363 C.ar    1  ZINC000443933644   -0.0900
     18 C18        -8.0040   -0.2473   57.7139 C.ar    1  ZINC000443933644   -0.0900
     19 C19        -7.9649    1.1314   57.4161 C.ar    1  ZINC000443933644    0.2300
     20 N20        -6.8378    1.8898   57.7381 N.am    1  ZINC000443933644   -0.6700
     21 C21        -6.0907    2.4360   56.7584 C.2     1  ZINC000443933644    0.5100
     22 C22        -4.8741    3.2546   57.1060 C.3     1  ZINC000443933644   -0.1700
     23 O23        -6.3975    2.2687   55.5970 O.2     1  ZINC000443933644   -0.5100
     24 C24        -9.0492    1.7226   56.8044 C.ar    1  ZINC000443933644   -0.1600
     25 C25       -10.1751    0.9744   56.4739 C.ar    1  ZINC000443933644    0.0400
     26 C26       -11.7405   -1.2865   60.0289 C.3     1  ZINC000443933644    0.4300
     27 F27       -10.5674   -0.5474   59.8419 F       1  ZINC000443933644   -0.1700
     28 F28       -12.3728   -0.8682   61.2046 F       1  ZINC000443933644   -0.1600
     29 F29       -11.4244   -2.6457   60.1276 F       1  ZINC000443933644   -0.1700
     30 H30       -13.2441   -3.8485   58.4314 H       1  ZINC000443933644    0.0500
     31 H31       -14.6705   -4.0573   59.4754 H       1  ZINC000443933644    0.0600
     32 H32       -14.7795   -4.4209   57.7364 H       1  ZINC000443933644    0.0600
     33 H33       -14.4031   -2.0267   57.2123 H       1  ZINC000443933644    0.0700
     34 H34       -15.8295   -2.2356   58.2562 H       1  ZINC000443933644    0.0900
     35 H35       -15.9134   -0.3303   59.7591 H       1  ZINC000443933644    0.0700
     36 H36       -14.4138    0.5952   60.0108 H       1  ZINC000443933644    0.0600
     37 H37       -15.0326    0.3341   58.3624 H       1  ZINC000443933644    0.0700
     38 H38       -12.3511   -2.8988   57.8186 H       1  ZINC000443933644    0.4300
     39 H39       -10.0705   -2.9552   57.4262 H       1  ZINC000443933644    0.1400
     40 H40        -8.1619   -4.0149   58.5066 H       1  ZINC000443933644    0.1300
     41 H41        -6.1602   -2.7126   59.0873 H       1  ZINC000443933644    0.1300
     42 H42        -6.0363   -0.3291   58.5979 H       1  ZINC000443933644    0.1300
     43 H43        -6.5924    2.0234   58.6670 H       1  ZINC000443933644    0.4200
     44 H44        -4.7596    3.2932   58.1892 H       1  ZINC000443933644    0.0800
     45 H45        -3.9895    2.7968   56.6631 H       1  ZINC000443933644    0.1000
     46 H46        -4.9933    4.2657   56.7169 H       1  ZINC000443933644    0.1000
     47 H47        -9.0230    2.7776   56.5750 H       1  ZINC000443933644    0.1500
     48 H48       -11.0130    1.4591   55.9949 H       1  ZINC000443933644    0.1500
@<TRIPOS>BOND
     1     1     2    1
     2     1    30    1
     3     1    31    1
     4     1    32    1
     5     2     3    1
     6     2    33    1
     7     2    34    1
     8     3     4    1
     9     3     5    1
    10     3     6    1
    11     5    35    1
    12     5    36    1
    13     5    37    1
    14     6     7    1
    15     6     8    1
    16     6    26    1
    17     8     9   am
    18     8    38    1
    19     9    10    2
    20     9    11    2
    21     9    12    1
    22    12    25   ar
    23    12    13   ar
    24    13    18   ar
    25    13    14   ar
    26    14    15   ar
    27    14    39    1
    28    15    16   ar
    29    15    40    1
    30    16    17   ar
    31    16    41    1
    32    17    18   ar
    33    17    42    1
    34    18    19   ar
    35    19    20    1
    36    19    24   ar
    37    20    21   am
    38    20    43    1
    39    21    22    1
    40    21    23    2
    41    22    44    1
    42    22    45    1
    43    22    46    1
    44    24    25   ar
    45    24    47    1
    46    25    48    1
    47    26    27    1
    48    26    28    1
    49    26    29    1
@<TRIPOS>SUBSTRUCTURE
     1 ZINC000443933644        1 TEMP              0 ****  ****    0 ROOT


##########                                Name:    ZINC000989658617
##########                DOCK_Rotatable_Bonds:                   6
##########                         Heavy_Atoms:                  24
##########                    Molecular_Weight:             334.418
##########                DOCK_Rotatable_Bonds:                   6
##########                       Formal_Charge:          -0.0100001
##########                     HBond_Acceptors:                   7
##########                        HBond_Donors:                   2
##########                         Heavy_Atoms:                  24
##########                          Grid_Score:          -27.589264
##########                     Grid_vdw_energy:          -25.422974
##########                      Grid_es_energy:           -2.166291
##########           Internal_energy_repulsive:            9.028929

@<TRIPOS>MOLECULE
ZINC000989658617
 50 52 1 0 0
SMALL
USER_CHARGES


@<TRIPOS>ATOM
      1 C1         -0.8600   -0.6134   48.3300 C.3     1  ZINC000989658617    0.0300
      2 O2         -1.7146    0.5317   48.3504 O.3     1  ZINC000989658617   -0.3700
      3 C3         -1.3297    1.5274   49.3005 C.3     1  ZINC000989658617    0.0500
      4 C4         -2.2754    2.6974   49.2130 C.2     1  ZINC000989658617    0.5300
      5 O5         -1.9390    3.7068   48.6308 O.2     1  ZINC000989658617   -0.5100
      6 N6         -3.4950    2.6220   49.7815 N.am    1  ZINC000989658617   -0.6200
      7 C7         -4.0303    1.4614   50.5160 C.3     1  ZINC000989658617    0.1000
      8 C8         -5.5696    1.6031   50.4143 C.3     1  ZINC000989658617   -0.1500
      9 C9         -5.7483    3.1408   50.5190 C.3     1  ZINC000989658617    0.1400
     10 H10        -5.7409    3.4598   51.5613 H       1  ZINC000989658617    0.1100
     11 N11        -6.9849    3.5651   49.8579 N.am    1  ZINC000989658617   -0.7100
     12 C12        -8.1695    3.4127   50.4824 C.2     1  ZINC000989658617    0.6100
     13 O13        -8.2120    2.9218   51.5937 O.2     1  ZINC000989658617   -0.5200
     14 C14        -9.4161    3.8421   49.8165 C.2     1  ZINC000989658617   -0.0100
     15 N15        -9.5277    4.3489   48.6005 N.2     1  ZINC000989658617   -0.2600
     16 N16       -10.7620    4.6115   48.3406 N.pl3   1  ZINC000989658617   -0.3700
     17 C17       -11.5332    4.2833   49.3902 C.2     1  ZINC000989658617    0.0100
     18 C18       -10.7146    3.7860   50.3498 C.2     1  ZINC000989658617   -0.1400
     19 C19       -11.1737    3.3008   51.6971 C.3     1  ZINC000989658617   -0.0400
     20 C20       -12.5928    3.8315   51.9422 C.3     1  ZINC000989658617   -0.0900
     21 H21       -12.5544    4.9082   52.1074 H       1  ZINC000989658617    0.0700
     22 C22       -13.1871    3.1475   53.1749 C.3     1  ZINC000989658617   -0.1500
     23 C23       -13.4681    3.5334   50.7219 C.3     1  ZINC000989658617   -0.1100
     24 C24       -13.0275    4.4072   49.5421 C.3     1  ZINC000989658617   -0.0500
     25 C25        -4.5095    3.6862   49.7776 C.3     1  ZINC000989658617    0.1300
     26 H26        -4.7729    3.9366   48.7500 H       1  ZINC000989658617    0.0800
     27 C27        -3.9783    4.9283   50.4958 C.3     1  ZINC000989658617   -0.1600
     28 H28         0.1549   -0.3050   48.0793 H       1  ZINC000989658617    0.0500
     29 H29        -0.8637   -1.0871   49.3118 H       1  ZINC000989658617    0.0400
     30 H30        -1.2194   -1.3217   47.5835 H       1  ZINC000989658617    0.0900
     31 H31        -1.3663    1.1049   50.3045 H       1  ZINC000989658617    0.0800
     32 H32        -0.3154    1.8631   49.0842 H       1  ZINC000989658617    0.0800
     33 H33        -3.7032    0.5326   50.0484 H       1  ZINC000989658617    0.0800
     34 H34        -3.7146    1.4936   51.5588 H       1  ZINC000989658617    0.0800
     35 H35        -5.9336    1.2319   49.4562 H       1  ZINC000989658617    0.0800
     36 H36        -6.0644    1.0950   51.2419 H       1  ZINC000989658617    0.1000
     37 H37        -6.9511    3.9557   48.9706 H       1  ZINC000989658617    0.4100
     38 H38       -11.0867    4.9905   47.5089 H       1  ZINC000989658617    0.4500
     39 H39       -11.1813    2.2109   51.7121 H       1  ZINC000989658617    0.0800
     40 H40       -10.5029    3.6748   52.4705 H       1  ZINC000989658617    0.0800
     41 H41       -12.5645    3.3600   54.0440 H       1  ZINC000989658617    0.0600
     42 H42       -14.1950    3.5243   53.3491 H       1  ZINC000989658617    0.0600
     43 H43       -13.2253    2.0707   53.0100 H       1  ZINC000989658617    0.0600
     44 H44       -13.3654    2.4830   50.4496 H       1  ZINC000989658617    0.0700
     45 H45       -14.5100    3.7453   50.9621 H       1  ZINC000989658617    0.0800
     46 H46       -13.2868    5.4475   49.7387 H       1  ZINC000989658617    0.0800
     47 H47       -13.5223    4.0707   48.6310 H       1  ZINC000989658617    0.0800
     48 H48        -3.7002    4.6667   51.5167 H       1  ZINC000989658617    0.0600
     49 H49        -3.1040    5.3077   49.9670 H       1  ZINC000989658617    0.0700
     50 H50        -4.7524    5.6956   50.5154 H       1  ZINC000989658617    0.0700
@<TRIPOS>BOND
     1     1     2    1
     2     1    28    1
     3     1    29    1
     4     1    30    1
     5     2     3    1
     6     3     4    1
     7     3    31    1
     8     3    32    1
     9     4     5    2
    10     4     6   am
    11     6    25    1
    12     6     7    1
    13     7     8    1
    14     7    33    1
    15     7    34    1
    16     8     9    1
    17     8    35    1
    18     8    36    1
    19     9    10    1
    20     9    11    1
    21     9    25    1
    22    11    12   am
    23    11    37    1
    24    12    13    2
    25    12    14    1
    26    14    18    1
    27    14    15    2
    28    15    16    1
    29    16    17    1
    30    16    38    1
    31    17    24    1
    32    17    18    2
    33    18    19    1
    34    19    20    1
    35    19    39    1
    36    19    40    1
    37    20    21    1
    38    20    22    1
    39    20    23    1
    40    22    41    1
    41    22    42    1
    42    22    43    1
    43    23    24    1
    44    23    44    1
    45    23    45    1
    46    24    46    1
    47    24    47    1
    48    25    26    1
    49    25    27    1
    50    27    48    1
    51    27    49    1
    52    27    50    1
@<TRIPOS>SUBSTRUCTURE
     1 ZINC000989658617        1 TEMP              0 ****  ****    0 ROOT


##########                                Name:    ZINC000012979878
##########                DOCK_Rotatable_Bonds:                   7
##########                         Heavy_Atoms:                  26
##########                    Molecular_Weight:             388.874
##########                DOCK_Rotatable_Bonds:                   7
##########                       Formal_Charge:          -0.0100003
##########                     HBond_Acceptors:                   7
##########                        HBond_Donors:                   1
##########                         Heavy_Atoms:                  26
##########                          Grid_Score:          -27.583361
##########                     Grid_vdw_energy:          -27.780899
##########                      Grid_es_energy:            0.197539
##########           Internal_energy_repulsive:           10.178736

@<TRIPOS>MOLECULE
ZINC000012979878
 43 45 1 0 0
SMALL
USER_CHARGES


@<TRIPOS>ATOM
      1 C1          0.6724    4.4238   49.4275 C.3     1  <0>         0.0300
      2 O2          0.7831    3.7626   48.1655 O.3     1  <0>        -0.3100
      3 C3         -0.3495    3.2097   47.6572 C.ar    1  <0>         0.1500
      4 C4         -0.3131    2.5514   46.4361 C.ar    1  <0>        -0.2200
      5 C5         -1.4643    1.9889   45.9176 C.ar    1  <0>        -0.0600
      6 C6         -2.6541    2.0797   46.6129 C.ar    1  <0>        -0.1800
      7 C7         -2.6965    2.7376   47.8361 C.ar    1  <0>         0.1800
      8 N8         -3.9012    2.8296   48.5402 N.am    1  <0>        -0.6700
      9 C9         -4.1190    2.0383   49.6093 C.2     1  <0>         0.6000
     10 O10        -3.2672    1.2439   49.9619 O.2     1  <0>        -0.4900
     11 C11        -5.3823    2.1348   50.3477 C.2     1  <0>        -0.3000
     12 C12        -5.9610    3.2766   50.7973 C.2     1  <0>         0.1600
     13 C13        -5.3549    4.6400   50.5856 C.3     1  <0>        -0.0900
     14 N14        -7.0922    3.0916   51.4303 N.2     1  <0>        -0.4500
     15 C15        -7.5147    1.8740   51.5501 C.2     1  <0>         0.0600
     16 C16        -8.7900    1.4705   52.2441 C.3     1  <0>         0.1300
     17 O17        -8.6404    0.1586   52.7906 O.3     1  <0>        -0.3000
     18 C18        -9.6611   -0.3114   53.5553 C.ar    1  <0>         0.1300
     19 C19       -10.9272   -0.4601   53.0084 C.ar    1  <0>        -0.2000
     20 C20       -11.9633   -0.9378   53.7873 C.ar    1  <0>        -0.0700
     21 C21       -11.7389   -1.2676   55.1123 C.ar    1  <0>        -0.0700
     22 Cl22      -13.0426   -1.8673   56.0892 Cl      1  <0>        -0.0700
     23 C23       -10.4766   -1.1203   55.6593 C.ar    1  <0>        -0.0700
     24 C24        -9.4366   -0.6483   54.8822 C.ar    1  <0>        -0.1300
     25 S25        -6.4247    0.7891   50.8035 S.3     1  <0>         0.2000
     26 C26        -1.5405    3.2980   48.3609 C.ar    1  <0>        -0.1500
     27 H27        -0.0426    5.2425   49.3472 H       1  <0>         0.0600
     28 H28         0.3295    3.7143   50.1806 H       1  <0>         0.0600
     29 H29         1.6462    4.8188   49.7174 H       1  <0>         0.1000
     30 H30         0.6159    2.4788   45.8901 H       1  <0>         0.1300
     31 H31        -1.4333    1.4778   44.9668 H       1  <0>         0.1300
     32 H32        -3.5522    1.6393   46.2056 H       1  <0>         0.1300
     33 H33        -4.5802    3.4627   48.2591 H       1  <0>         0.4100
     34 H34        -5.7205    5.0586   49.6478 H       1  <0>         0.0900
     35 H35        -5.6368    5.2950   51.4100 H       1  <0>         0.0800
     36 H36        -4.2692    4.5528   50.5457 H       1  <0>         0.1000
     37 H37        -9.0059    2.1759   53.0465 H       1  <0>         0.0900
     38 H38        -9.6108    1.4738   51.5267 H       1  <0>         0.1000
     39 H39       -11.1030   -0.2021   51.9745 H       1  <0>         0.1400
     40 H40       -12.9492   -1.0538   53.3619 H       1  <0>         0.1400
     41 H41       -10.3033   -1.3786   56.6937 H       1  <0>         0.1400
     42 H42        -8.4515   -0.5335   55.3096 H       1  <0>         0.1400
     43 H43        -1.5705    3.8096   49.3115 H       1  <0>         0.1400
@<TRIPOS>BOND
     1     1     2    1
     2     1    27    1
     3     1    28    1
     4     1    29    1
     5     2     3    1
     6     3    26   ar
     7     3     4   ar
     8     4     5   ar
     9     4    30    1
    10     5     6   ar
    11     5    31    1
    12     6     7   ar
    13     6    32    1
    14     7     8    1
    15     7    26   ar
    16     8     9   am
    17     8    33    1
    18     9    10    2
    19     9    11    1
    20    11    25    1
    21    11    12    2
    22    12    13    1
    23    12    14    1
    24    13    34    1
    25    13    35    1
    26    13    36    1
    27    14    15    2
    28    15    16    1
    29    15    25    1
    30    16    17    1
    31    16    37    1
    32    16    38    1
    33    17    18    1
    34    18    24   ar
    35    18    19   ar
    36    19    20   ar
    37    19    39    1
    38    20    21   ar
    39    20    40    1
    40    21    22    1
    41    21    23   ar
    42    23    24   ar
    43    23    41    1
    44    24    42    1
    45    26    43    1
@<TRIPOS>SUBSTRUCTURE
     1 <0>         1 TEMP              0 ****  ****    0 ROOT


##########                                Name:    ZINC000836820897
##########                DOCK_Rotatable_Bonds:                   5
##########                         Heavy_Atoms:                  22
##########                    Molecular_Weight:             330.355
##########                DOCK_Rotatable_Bonds:                   5
##########                       Formal_Charge:          -0.0200003
##########                     HBond_Acceptors:                   8
##########                        HBond_Donors:                   1
##########                         Heavy_Atoms:                  22
##########                          Grid_Score:          -27.576046
##########                     Grid_vdw_energy:          -27.684414
##########                      Grid_es_energy:            0.108369
##########           Internal_energy_repulsive:            5.640679

@<TRIPOS>MOLECULE
ZINC000836820897
 38 40 1 0 0
SMALL
USER_CHARGES


@<TRIPOS>ATOM
      1 O1         -4.7075    4.4591   49.4879 O.2     1  ZINC000836820897   -0.5200
      2 C2         -4.6796    3.2718   49.7474 C.2     1  ZINC000836820897    0.5800
      3 C3         -3.4959    2.4646   49.3872 C.ar    1  ZINC000836820897   -0.1600
      4 C4         -2.6262    2.0140   50.3822 C.ar    1  ZINC000836820897   -0.0100
      5 C5         -1.5233    1.2606   50.0406 C.ar    1  ZINC000836820897   -0.1700
      6 C6         -1.2770    0.9505   48.7120 C.ar    1  ZINC000836820897    0.2200
      7 F7         -0.1947    0.2119   48.3827 F       1  ZINC000836820897   -0.1100
      8 C8         -2.1379    1.3952   47.7199 C.ar    1  ZINC000836820897   -0.7200
      9 S9         -1.8180    0.9954   46.0339 S.o2    1  ZINC000836820897    2.7000
     10 O10        -1.9047   -0.4193   45.9336 O.2     1  ZINC000836820897   -0.9400
     11 O11        -2.6111    1.8799   45.2543 O.2     1  ZINC000836820897   -0.9400
     12 N12        -0.2390    1.3900   45.7277 N.am    1  ZINC000836820897   -1.0800
     13 C13         0.2157    2.7728   45.8928 C.3     1  ZINC000836820897    0.0700
     14 C14         1.4587    3.2056   45.1126 C.3     1  ZINC000836820897   -0.1800
     15 C15         0.0771    3.7101   44.6916 C.3     1  ZINC000836820897   -0.1900
     16 C16        -3.2460    2.1448   48.0508 C.ar    1  ZINC000836820897    0.0600
     17 N17        -5.7263    2.6929   50.3685 N.am    1  ZINC000836820897   -0.6200
     18 C18        -6.9641    3.3735   50.7763 C.3     1  ZINC000836820897    0.0900
     19 C19        -7.8798    2.3117   51.4210 C.3     1  ZINC000836820897   -0.1600
     20 C20        -7.3397    0.9823   50.8307 C.3     1  ZINC000836820897    0.0800
     21 H21        -7.7546    0.7977   49.8398 H       1  ZINC000836820897    0.1100
     22 F22        -7.6019   -0.0907   51.6891 F       1  ZINC000836820897   -0.1900
     23 C23        -5.8223    1.2711   50.7461 C.3     1  ZINC000836820897    0.0800
     24 H24        -2.8169    2.2553   51.4174 H       1  ZINC000836820897    0.1500
     25 H25        -0.8496    0.9118   50.8094 H       1  ZINC000836820897    0.1600
     26 H26         0.3847    0.7054   45.4390 H       1  ZINC000836820897    0.4200
     27 H27         0.0694    3.2006   46.8845 H       1  ZINC000836820897    0.1400
     28 H28         2.1305    3.9181   45.5912 H       1  ZINC000836820897    0.1100
     29 H29         1.9381    2.4614   44.4766 H       1  ZINC000836820897    0.1000
     30 H30        -0.3525    3.2981   43.7785 H       1  ZINC000836820897    0.1000
     31 H31        -0.1602    4.7548   44.8931 H       1  ZINC000836820897    0.1000
     32 H32        -3.9160    2.4904   47.2774 H       1  ZINC000836820897    0.1600
     33 H33        -6.7359    4.1554   51.5007 H       1  ZINC000836820897    0.0800
     34 H34        -7.4544    3.8054   49.9037 H       1  ZINC000836820897    0.0800
     35 H35        -7.7772    2.3216   52.5061 H       1  ZINC000836820897    0.0900
     36 H36        -8.9181    2.4694   51.1292 H       1  ZINC000836820897    0.1000
     37 H37        -5.3580    0.6414   49.9871 H       1  ZINC000836820897    0.1000
     38 H38        -5.3507    1.1088   51.7152 H       1  ZINC000836820897    0.0900
@<TRIPOS>BOND
     1     1     2    2
     2     2     3    1
     3     2    17   am
     4     3    16   ar
     5     3     4   ar
     6     4     5   ar
     7     4    24    1
     8     5     6   ar
     9     5    25    1
    10     6     7    1
    11     6     8   ar
    12     8     9    1
    13     8    16   ar
    14     9    10    2
    15     9    11    2
    16     9    12   am
    17    12    13    1
    18    12    26    1
    19    13    15    1
    20    13    14    1
    21    13    27    1
    22    14    15    1
    23    14    28    1
    24    14    29    1
    25    15    30    1
    26    15    31    1
    27    16    32    1
    28    17    23    1
    29    17    18    1
    30    18    19    1
    31    18    33    1
    32    18    34    1
    33    19    20    1
    34    19    35    1
    35    19    36    1
    36    20    21    1
    37    20    22    1
    38    20    23    1
    39    23    37    1
    40    23    38    1
@<TRIPOS>SUBSTRUCTURE
     1 ZINC000836820897        1 TEMP              0 ****  ****    0 ROOT


##########                                Name:    ZINC000186105981
##########                DOCK_Rotatable_Bonds:                   6
##########                         Heavy_Atoms:                  26
##########                    Molecular_Weight:             396.873
##########                DOCK_Rotatable_Bonds:                   6
##########                       Formal_Charge:          -0.0400003
##########                     HBond_Acceptors:                   9
##########                        HBond_Donors:                   1
##########                         Heavy_Atoms:                  26
##########                          Grid_Score:          -27.574816
##########                     Grid_vdw_energy:          -27.290188
##########                      Grid_es_energy:           -0.284628
##########           Internal_energy_repulsive:           20.665880

@<TRIPOS>MOLECULE
ZINC000186105981
 44 46 1 0 0
SMALL
USER_CHARGES


@<TRIPOS>ATOM
      1 C1         -0.0297    1.6398   49.2650 C.3     1  ZINC000186105981   -0.1400
      2 C2         -1.3815    1.9624   49.9051 C.3     1  ZINC000186105981   -0.1100
      3 C3         -1.1674    2.4014   51.3550 C.3     1  ZINC000186105981   -0.1600
      4 C4         -2.0585    3.0912   49.1252 C.3     1  ZINC000186105981    0.1600
      5 H5         -1.6594    4.0505   49.4545 H       1  ZINC000186105981    0.1200
      6 C6         -3.5443    3.0531   49.3744 C.2     1  ZINC000186105981    0.4900
      7 O7         -4.2927    3.7078   48.6799 O.2     1  ZINC000186105981   -0.4300
      8 N8         -4.0415    2.2915   50.3689 N.am    1  ZINC000186105981   -0.6300
      9 C9         -5.4116    2.2563   50.5987 C.2     1  ZINC000186105981    0.2400
     10 N10        -6.3351    2.0583   49.7016 N.2     1  ZINC000186105981   -0.2600
     11 N11        -7.5361    2.0572   50.0863 N.2     1  ZINC000186105981   -0.2000
     12 C12        -7.7660    2.2540   51.3543 C.2     1  ZINC000186105981    0.0300
     13 C13        -9.0934    2.2887   52.0033 C.ar    1  ZINC000186105981   -0.0500
     14 C14        -9.7879    3.4959   52.1173 C.ar    1  ZINC000186105981    0.1300
     15 F15        -9.2478    4.6363   51.6344 F       1  ZINC000186105981   -0.1200
     16 C16       -11.0290    3.5201   52.7252 C.ar    1  ZINC000186105981   -0.1400
     17 C17       -11.5831    2.3534   53.2195 C.ar    1  ZINC000186105981   -0.0600
     18 C18       -10.9005    1.1548   53.1102 C.ar    1  ZINC000186105981   -0.1200
     19 C19        -9.6625    1.1140   52.5005 C.ar    1  ZINC000186105981    0.0200
     20 Cl20       -8.8088   -0.3914   52.3643 Cl      1  ZINC000186105981   -0.0100
     21 S21        -6.2095    2.4639   52.1590 S.3     1  ZINC000186105981    0.1200
     22 N22        -1.7990    2.9197   47.6936 N.am    1  ZINC000186105981   -0.6100
     23 C23        -2.5056    1.9639   46.8326 C.3     1  ZINC000186105981    0.1000
     24 C24        -2.2297    2.4304   45.3860 C.3     1  ZINC000186105981   -0.1300
     25 C25        -0.8924    3.1892   45.5490 C.3     1  ZINC000186105981   -0.1600
     26 C26        -0.8872    3.6215   46.9986 C.2     1  ZINC000186105981    0.5200
     27 O27        -0.1610    4.4723   47.4672 O.2     1  ZINC000186105981   -0.5000
     28 H28         0.4526    0.8356   49.8207 H       1  ZINC000186105981    0.0600
     29 H29        -0.1822    1.3271   48.2321 H       1  ZINC000186105981    0.0600
     30 H30         0.6034    2.5268   49.2864 H       1  ZINC000186105981    0.0600
     31 H31        -2.0146    1.0754   49.8837 H       1  ZINC000186105981    0.0900
     32 H32        -0.6133    3.3399   51.3726 H       1  ZINC000186105981    0.0600
     33 H33        -2.1341    2.5410   51.8389 H       1  ZINC000186105981    0.0600
     34 H34        -0.6022    1.6359   51.8868 H       1  ZINC000186105981    0.0700
     35 H35        -3.4430    1.7678   50.9244 H       1  ZINC000186105981    0.4200
     36 H36       -11.5672    4.4522   52.8146 H       1  ZINC000186105981    0.1500
     37 H37       -12.5532    2.3780   53.6935 H       1  ZINC000186105981    0.1500
     38 H38       -11.3395    0.2477   53.4990 H       1  ZINC000186105981    0.1500
     39 H39        -2.1146    0.9580   46.9856 H       1  ZINC000186105981    0.0700
     40 H40        -3.5754    1.9892   47.0397 H       1  ZINC000186105981    0.0800
     41 H41        -2.1155    1.5780   44.7164 H       1  ZINC000186105981    0.0900
     42 H42        -3.0167    3.0977   45.0347 H       1  ZINC000186105981    0.0800
     43 H43        -0.0509    2.5283   45.3409 H       1  ZINC000186105981    0.1100
     44 H44        -0.8657    4.0602   44.8939 H       1  ZINC000186105981    0.1000
@<TRIPOS>BOND
     1     1     2    1
     2     1    28    1
     3     1    29    1
     4     1    30    1
     5     2     3    1
     6     2     4    1
     7     2    31    1
     8     3    32    1
     9     3    33    1
    10     3    34    1
    11     4     5    1
    12     4     6    1
    13     4    22    1
    14     6     7    2
    15     6     8   am
    16     8     9    1
    17     8    35    1
    18     9    21    1
    19     9    10    2
    20    10    11    1
    21    11    12    2
    22    12    13    1
    23    12    21    1
    24    13    19   ar
    25    13    14   ar
    26    14    15    1
    27    14    16   ar
    28    16    17   ar
    29    16    36    1
    30    17    18   ar
    31    17    37    1
    32    18    19   ar
    33    18    38    1
    34    19    20    1
    35    22    26   am
    36    22    23    1
    37    23    24    1
    38    23    39    1
    39    23    40    1
    40    24    25    1
    41    24    41    1
    42    24    42    1
    43    25    26    1
    44    25    43    1
    45    25    44    1
    46    26    27    2
@<TRIPOS>SUBSTRUCTURE
     1 ZINC000186105981        1 TEMP              0 ****  ****    0 ROOT


##########                                Name:    ZINC001091652821
##########                DOCK_Rotatable_Bonds:                   4
##########                         Heavy_Atoms:                  24
##########                    Molecular_Weight:             345.465
##########                DOCK_Rotatable_Bonds:                   4
##########                       Formal_Charge:          -0.0199997
##########                     HBond_Acceptors:                   6
##########                        HBond_Donors:                   0
##########                         Heavy_Atoms:                  24
##########                          Grid_Score:          -27.548199
##########                     Grid_vdw_energy:          -26.999958
##########                      Grid_es_energy:           -0.548241
##########           Internal_energy_repulsive:            6.901531

@<TRIPOS>MOLECULE
ZINC001091652821
 47 50 1 0 0
SMALL
USER_CHARGES


@<TRIPOS>ATOM
      1 C1        -14.4077   -3.6451   57.9609 C.3     1  ZINC001091652821   -0.1000
      2 C2        -13.1099   -3.2286   58.6035 C.2     1  ZINC001091652821   -0.1200
      3 C3        -13.0197   -2.9129   59.9007 C.2     1  ZINC001091652821   -0.2400
      4 S4        -11.4207   -2.4860   60.3153 S.3     1  ZINC001091652821    0.2100
      5 C5        -10.8715   -2.7497   58.6659 C.2     1  ZINC001091652821   -0.2700
      6 C6         -9.4967   -2.5734   58.1889 C.2     1  ZINC001091652821    0.6100
      7 O7         -8.9724   -3.4374   57.5107 O.2     1  ZINC001091652821   -0.5200
      8 N8         -8.8133   -1.4546   58.5015 N.am    1  ZINC001091652821   -0.6200
      9 C9         -7.4367   -1.1231   58.0989 C.3     1  ZINC001091652821    0.0900
     10 C10        -7.3795    0.4078   57.9678 C.3     1  ZINC001091652821   -0.0900
     11 H11        -6.4400    0.8155   58.3412 H       1  ZINC001091652821    0.1100
     12 C12        -7.6365    0.7981   56.4972 C.3     1  ZINC001091652821    0.0400
     13 N13        -8.5724    1.9490   56.5710 N.3     1  ZINC001091652821   -0.5000
     14 C14        -9.2908    2.1256   55.3019 C.3     1  ZINC001091652821    0.1200
     15 C15        -8.3156    2.0381   54.1563 C.2     1  ZINC001091652821    0.0000
     16 C16        -7.2981    2.8813   53.9152 C.2     1  ZINC001091652821   -0.0800
     17 O17        -6.6786    2.4467   52.8004 O.3     1  ZINC001091652821   -0.2000
     18 C18        -7.3214    1.3503   52.3769 C.2     1  ZINC001091652821    0.1900
     19 C19        -6.9626    0.5380   51.1593 C.3     1  ZINC001091652821   -0.0600
     20 N20        -8.3037    1.0986   53.1943 N.2     1  ZINC001091652821   -0.4700
     21 C21        -9.5082    1.5882   57.6665 C.3     1  ZINC001091652821    0.0400
     22 C22        -8.6020    0.9319   58.7646 C.3     1  ZINC001091652821   -0.0700
     23 C23        -8.2269    1.9235   59.8677 C.3     1  ZINC001091652821   -0.1300
     24 C24        -9.2999   -0.3227   59.3070 C.3     1  ZINC001091652821    0.1200
     25 C25       -11.9306   -3.1508   57.9011 C.2     1  ZINC001091652821   -0.0500
     26 H26       -14.5193   -4.7269   58.0353 H       1  ZINC001091652821    0.0700
     27 H27       -15.2386   -3.1582   58.4714 H       1  ZINC001091652821    0.0700
     28 H28       -14.4041   -3.3516   56.9112 H       1  ZINC001091652821    0.0700
     29 H29       -13.8487   -2.9261   60.5929 H       1  ZINC001091652821    0.1700
     30 H30        -6.7330   -1.4599   58.8601 H       1  ZINC001091652821    0.0800
     31 H31        -7.2045   -1.5894   57.1415 H       1  ZINC001091652821    0.0800
     32 H32        -6.7055    1.0961   56.0150 H       1  ZINC001091652821    0.0800
     33 H33        -8.0957   -0.0309   55.9588 H       1  ZINC001091652821    0.0500
     34 H34       -10.0436    1.3441   55.1987 H       1  ZINC001091652821    0.0500
     35 H35        -9.7764    3.1014   55.2920 H       1  ZINC001091652821    0.1000
     36 H36        -7.0276    3.7453   54.5042 H       1  ZINC001091652821    0.2100
     37 H37        -6.0945    0.9801   50.6703 H       1  ZINC001091652821    0.0900
     38 H38        -6.7292   -0.4835   51.4598 H       1  ZINC001091652821    0.1000
     39 H39        -7.8045    0.5297   50.4669 H       1  ZINC001091652821    0.1000
     40 H40        -9.9882    2.4817   58.0658 H       1  ZINC001091652821    0.0900
     41 H41       -10.2570    0.8813   57.3092 H       1  ZINC001091652821    0.0500
     42 H42        -9.1320    2.2769   60.3616 H       1  ZINC001091652821    0.0600
     43 H43        -7.5843    1.4299   60.5967 H       1  ZINC001091652821    0.0600
     44 H44        -7.6972    2.7700   59.4306 H       1  ZINC001091652821    0.0700
     45 H45       -10.3792   -0.2335   59.1831 H       1  ZINC001091652821    0.0900
     46 H46        -9.0540   -0.4619   60.3597 H       1  ZINC001091652821    0.0800
     47 H47       -11.8508   -3.3766   56.8481 H       1  ZINC001091652821    0.1500
@<TRIPOS>BOND
     1     1     2    1
     2     1    26    1
     3     1    27    1
     4     1    28    1
     5     2    25    1
     6     2     3    2
     7     3     4    1
     8     3    29    1
     9     4     5    1
    10     5     6    1
    11     5    25    2
    12     6     7    2
    13     6     8   am
    14     8    24    1
    15     8     9    1
    16     9    10    1
    17     9    30    1
    18     9    31    1
    19    10    11    1
    20    10    22    1
    21    10    12    1
    22    12    13    1
    23    12    32    1
    24    12    33    1
    25    13    14    1
    26    13    21    1
    27    14    15    1
    28    14    34    1
    29    14    35    1
    30    15    20    1
    31    15    16    2
    32    16    17    1
    33    16    36    1
    34    17    18    1
    35    18    19    1
    36    18    20    2
    37    19    37    1
    38    19    38    1
    39    19    39    1
    40    21    22    1
    41    21    40    1
    42    21    41    1
    43    22    23    1
    44    22    24    1
    45    23    42    1
    46    23    43    1
    47    23    44    1
    48    24    45    1
    49    24    46    1
    50    25    47    1
@<TRIPOS>SUBSTRUCTURE
     1 ZINC001091652821        1 TEMP              0 ****  ****    0 ROOT


##########                                Name:    ZINC001045463759
##########                DOCK_Rotatable_Bonds:                   6
##########                         Heavy_Atoms:                  24
##########                    Molecular_Weight:             336.385
##########                DOCK_Rotatable_Bonds:                   6
##########                       Formal_Charge:          1.3411e-07
##########                     HBond_Acceptors:                   7
##########                        HBond_Donors:                   2
##########                         Heavy_Atoms:                  24
##########                          Grid_Score:          -27.545870
##########                     Grid_vdw_energy:          -26.790485
##########                      Grid_es_energy:           -0.755385
##########           Internal_energy_repulsive:            9.820450

@<TRIPOS>MOLECULE
ZINC001045463759
 46 49 1 0 0
SMALL
USER_CHARGES


@<TRIPOS>ATOM
      1 O1        -10.6719    1.2479   56.3982 O.2     1  ZINC001045463759   -0.5100
      2 C2         -9.5295    1.4621   56.0518 C.2     1  ZINC001045463759    0.5400
      3 N3         -8.5093    1.1907   56.8897 N.am    1  ZINC001045463759   -0.7200
      4 C4         -8.7807    0.6430   58.2211 C.3     1  ZINC001045463759    0.1400
      5 H5         -9.6471   -0.0166   58.1729 H       1  ZINC001045463759    0.1000
      6 C6         -9.0649    1.7878   59.1954 C.3     1  ZINC001045463759   -0.1300
      7 C7         -9.3484    1.2158   60.5858 C.3     1  ZINC001045463759   -0.1200
      8 C8         -8.1314    0.4246   61.0696 C.3     1  ZINC001045463759   -0.1200
      9 C9         -7.8472   -0.7203   60.0953 C.3     1  ZINC001045463759   -0.1300
     10 C10        -7.5638   -0.1482   58.7049 C.3     1  ZINC001045463759    0.1500
     11 H11        -6.6973    0.5115   58.7531 H       1  ZINC001045463759    0.0900
     12 N12        -7.2915   -1.2444   57.7720 N.pl3   1  ZINC001045463759   -0.7100
     13 C13        -7.9141   -2.4702   57.9428 C.ar    1  ZINC001045463759    0.4400
     14 C14        -7.2002   -3.5666   58.4301 C.ar    1  ZINC001045463759   -0.3000
     15 C15        -7.8659   -4.7671   58.5826 C.ar    1  ZINC001045463759    0.1800
     16 N16        -9.1506   -4.8391   58.2642 N.ar    1  ZINC001045463759   -0.5600
     17 C17        -9.7966   -3.7857   57.8064 C.ar    1  ZINC001045463759    0.4000
     18 C18       -11.2570   -3.9164   57.4577 C.3     1  ZINC001045463759   -0.1100
     19 C19       -12.2078   -2.8391   57.9833 C.3     1  ZINC001045463759   -0.1500
     20 C20       -11.8489   -2.8834   56.4967 C.3     1  ZINC001045463759   -0.1500
     21 N21        -9.2028   -2.6199   57.6503 N.ar    1  ZINC001045463759   -0.5700
     22 C22        -9.2502    2.0255   54.6823 C.3     1  ZINC001045463759   -0.2000
     23 H23        -9.7369    2.9743   54.4562 H       1  ZINC001045463759    0.1500
     24 C24        -7.8603    1.7856   54.0896 C.3     1  ZINC001045463759   -0.1500
     25 C25        -9.0707    1.0320   53.5327 C.3     1  ZINC001045463759    0.2300
     26 F26        -9.1779   -0.3301   53.8335 F       1  ZINC001045463759   -0.1400
     27 F27        -9.5433    1.4108   52.2717 F       1  ZINC001045463759   -0.1500
     28 H28        -7.5953    1.3583   56.6114 H       1  ZINC001045463759    0.4000
     29 H29        -8.1986    2.4474   59.2437 H       1  ZINC001045463759    0.0700
     30 H30        -9.9320    2.3515   58.8508 H       1  ZINC001045463759    0.0800
     31 H31        -9.5510    2.0313   61.2800 H       1  ZINC001045463759    0.0700
     32 H32       -10.2149    0.5561   60.5376 H       1  ZINC001045463759    0.0700
     33 H33        -7.2651    1.0842   61.1179 H       1  ZINC001045463759    0.0700
     34 H34        -8.3334    0.0170   62.0601 H       1  ZINC001045463759    0.0700
     35 H35        -6.9802   -1.2839   60.4399 H       1  ZINC001045463759    0.0700
     36 H36        -8.7136   -1.3799   60.0470 H       1  ZINC001045463759    0.0700
     37 H37        -6.6753   -1.1120   57.0347 H       1  ZINC001045463759    0.4100
     38 H38        -6.1534   -3.4783   58.6811 H       1  ZINC001045463759    0.1400
     39 H39        -7.3460   -5.6368   58.9565 H       1  ZINC001045463759    0.1700
     40 H40       -11.6361   -4.9363   57.3962 H       1  ZINC001045463759    0.1300
     41 H41       -13.2129   -3.1504   58.2679 H       1  ZINC001045463759    0.1000
     42 H42       -11.7771   -2.0360   58.5814 H       1  ZINC001045463759    0.1100
     43 H43       -11.1821   -2.1094   56.1167 H       1  ZINC001045463759    0.1000
     44 H44       -12.6178   -3.2237   55.8032 H       1  ZINC001045463759    0.1000
     45 H45        -7.4327    2.5763   53.4732 H       1  ZINC001045463759    0.1400
     46 H46        -7.1478    1.2202   54.6902 H       1  ZINC001045463759    0.1300
@<TRIPOS>BOND
     1     1     2    2
     2     2     3   am
     3     2    22    1
     4     3     4    1
     5     3    28    1
     6     4     5    1
     7     4    10    1
     8     4     6    1
     9     6     7    1
    10     6    29    1
    11     6    30    1
    12     7     8    1
    13     7    31    1
    14     7    32    1
    15     8     9    1
    16     8    33    1
    17     8    34    1
    18     9    10    1
    19     9    35    1
    20     9    36    1
    21    10    11    1
    22    10    12    1
    23    12    13    1
    24    12    37    1
    25    13    21   ar
    26    13    14   ar
    27    14    15   ar
    28    14    38    1
    29    15    16   ar
    30    15    39    1
    31    16    17   ar
    32    17    18    1
    33    17    21   ar
    34    18    20    1
    35    18    19    1
    36    18    40    1
    37    19    20    1
    38    19    41    1
    39    19    42    1
    40    20    43    1
    41    20    44    1
    42    22    23    1
    43    22    25    1
    44    22    24    1
    45    24    25    1
    46    24    45    1
    47    24    46    1
    48    25    26    1
    49    25    27    1
@<TRIPOS>SUBSTRUCTURE
     1 ZINC001045463759        1 TEMP              0 ****  ****    0 ROOT


##########                                Name:    ZINC000817655807
##########                DOCK_Rotatable_Bonds:                   3
##########                         Heavy_Atoms:                  24
##########                    Molecular_Weight:             352.774
##########                DOCK_Rotatable_Bonds:                   3
##########                       Formal_Charge:         3.35276e-07
##########                     HBond_Acceptors:                   8
##########                        HBond_Donors:                   0
##########                         Heavy_Atoms:                  24
##########                          Grid_Score:          -27.542795
##########                     Grid_vdw_energy:          -26.218725
##########                      Grid_es_energy:           -1.324070
##########           Internal_energy_repulsive:            2.836332

@<TRIPOS>MOLECULE
ZINC000817655807
 41 44 1 0 0
SMALL
USER_CHARGES


@<TRIPOS>ATOM
      1 C1         -2.8556    3.7608   53.0360 C.3     1  ZINC000817655807    0.1100
      2 N2         -4.0140    3.5099   52.1749 N.am    1  ZINC000817655807   -0.6400
      3 C3         -5.0842    2.5318   52.4406 C.3     1  ZINC000817655807    0.1000
      4 C4         -6.0151    2.6928   51.2353 C.3     1  ZINC000817655807    0.0500
      5 C5         -6.4062    1.3997   50.5198 C.3     1  ZINC000817655807    0.1200
      6 N6         -7.6078    1.4157   51.3801 N.am    1  ZINC000817655807   -0.6500
      7 C7         -8.4626    0.4729   51.8237 C.2     1  ZINC000817655807    0.5500
      8 O8         -8.3036   -0.6870   51.5071 O.2     1  ZINC000817655807   -0.5100
      9 C9         -9.6160    0.8599   52.7130 C.3     1  ZINC000817655807   -0.0900
     10 C10        -9.3336    0.4140   54.1246 C.ar    1  ZINC000817655807   -0.0600
     11 C11       -10.0328   -0.6485   54.6654 C.ar    1  ZINC000817655807   -0.0900
     12 C12        -9.7776   -1.0590   55.9615 C.ar    1  ZINC000817655807   -0.0300
     13 Cl13      -10.6581   -2.3936   56.6377 Cl      1  ZINC000817655807   -0.0500
     14 C14        -8.8183   -0.4051   56.7213 C.ar    1  ZINC000817655807    0.0600
     15 O15        -8.5835   -0.8150   57.9980 O.3     1  ZINC000817655807   -0.2900
     16 C16        -7.3597   -0.3781   58.5994 C.3     1  ZINC000817655807    0.0200
     17 C17        -7.1955    1.1220   58.3200 C.3     1  ZINC000817655807    0.0200
     18 O18        -7.1643    1.3129   56.9014 O.3     1  ZINC000817655807   -0.3000
     19 C19        -8.1131    0.6607   56.1754 C.ar    1  ZINC000817655807    0.0600
     20 C20        -8.3716    1.0649   54.8741 C.ar    1  ZINC000817655807   -0.0900
     21 C21        -7.4974    2.8784   51.5603 C.3     1  ZINC000817655807    0.1100
     22 O22        -5.4030    3.7187   50.4199 O.3     1  ZINC000817655807   -0.3000
     23 C23        -4.2775    4.1369   51.0183 C.2     1  ZINC000817655807    0.6400
     24 O24        -3.5590    4.9988   50.5521 O.2     1  ZINC000817655807   -0.5100
     25 H25        -2.2348    4.5391   52.5922 H       1  ZINC000817655807    0.0900
     26 H26        -3.1970    4.0848   54.0192 H       1  ZINC000817655807    0.0700
     27 H27        -2.2730    2.8450   53.1373 H       1  ZINC000817655807    0.0700
     28 H28        -4.6795    1.5205   52.4814 H       1  ZINC000817655807    0.1000
     29 H29        -5.6070    2.7756   53.3654 H       1  ZINC000817655807    0.1000
     30 H30        -6.6222    1.5312   49.4595 H       1  ZINC000817655807    0.1100
     31 H31        -5.7334    0.5656   50.7188 H       1  ZINC000817655807    0.1000
     32 H32        -9.7436    1.9421   52.6924 H       1  ZINC000817655807    0.1100
     33 H33       -10.5272    0.3798   52.3558 H       1  ZINC000817655807    0.1100
     34 H34       -10.7796   -1.1588   54.0753 H       1  ZINC000817655807    0.1400
     35 H35        -7.3970   -0.5497   59.6751 H       1  ZINC000817655807    0.1300
     36 H36        -6.5220   -0.9261   58.1680 H       1  ZINC000817655807    0.0800
     37 H37        -8.0362    1.6694   58.7461 H       1  ZINC000817655807    0.0800
     38 H38        -6.2637    1.4779   58.7593 H       1  ZINC000817655807    0.1300
     39 H39        -7.8234    1.8917   54.4472 H       1  ZINC000817655807    0.1400
     40 H40        -7.6859    3.2117   52.5809 H       1  ZINC000817655807    0.1000
     41 H41        -8.0428    3.4564   50.8143 H       1  ZINC000817655807    0.1100
@<TRIPOS>BOND
     1     1     2    1
     2     1    25    1
     3     1    26    1
     4     1    27    1
     5     2    23   am
     6     2     3    1
     7     3     4    1
     8     3    28    1
     9     3    29    1
    10     4    21    1
    11     4     5    1
    12     4    22    1
    13     5     6    1
    14     5    30    1
    15     5    31    1
    16     6     7   am
    17     6    21    1
    18     7     8    2
    19     7     9    1
    20     9    10    1
    21     9    32    1
    22     9    33    1
    23    10    20   ar
    24    10    11   ar
    25    11    12   ar
    26    11    34    1
    27    12    13    1
    28    12    14   ar
    29    14    19   ar
    30    14    15    1
    31    15    16    1
    32    16    17    1
    33    16    35    1
    34    16    36    1
    35    17    18    1
    36    17    37    1
    37    17    38    1
    38    18    19    1
    39    19    20   ar
    40    20    39    1
    41    21    40    1
    42    21    41    1
    43    22    23    1
    44    23    24    2
@<TRIPOS>SUBSTRUCTURE
     1 ZINC000817655807        1 TEMP              0 ****  ****    0 ROOT


##########                                Name:    ZINC000543020509
##########                DOCK_Rotatable_Bonds:                   5
##########                         Heavy_Atoms:                  26
##########                    Molecular_Weight:              366.81
##########                DOCK_Rotatable_Bonds:                   5
##########                       Formal_Charge:               -0.02
##########                     HBond_Acceptors:                   8
##########                        HBond_Donors:                   1
##########                         Heavy_Atoms:                  26
##########                          Grid_Score:          -27.538698
##########                     Grid_vdw_energy:          -27.839531
##########                      Grid_es_energy:            0.300833
##########           Internal_energy_repulsive:            4.211340

@<TRIPOS>MOLECULE
ZINC000543020509
 41 43 1 0 0
SMALL
USER_CHARGES


@<TRIPOS>ATOM
      1 C1         -1.3508   -0.2079   46.4793 C.3     1  ZINC000543020509    0.0800
      2 N2         -1.8492    1.0817   46.9641 N.pl3   1  ZINC000543020509   -0.6200
      3 C3         -2.2537    2.1164   46.0092 C.3     1  ZINC000543020509    0.0900
      4 C4         -1.9386    1.3237   48.3319 C.ar    1  ZINC000543020509    0.2500
      5 C5         -0.7900    1.4513   49.1112 C.ar    1  ZINC000543020509   -0.2200
      6 C6         -0.9163    1.6919   50.4669 C.ar    1  ZINC000543020509    0.1400
      7 N7         -2.1018    1.8015   51.0283 N.ar    1  ZINC000543020509   -0.5000
      8 C8         -3.2234    1.6871   50.3251 C.ar    1  ZINC000543020509    0.1100
      9 C9         -4.5326    1.8192   51.0054 C.2     1  ZINC000543020509    0.5900
     10 O10        -4.5787    2.1278   52.1800 O.2     1  ZINC000543020509   -0.5000
     11 N11        -5.6728    1.5972   50.3218 N.am    1  ZINC000543020509   -0.6200
     12 C12        -6.9098    1.7237   50.9641 C.2     1  ZINC000543020509    0.3200
     13 N13        -7.4132    0.8828   51.8371 N.2     1  ZINC000543020509   -0.3100
     14 N14        -8.6633    1.3682   52.2422 N.pl3   1  ZINC000543020509   -0.3300
     15 C15        -9.5209    0.7625   53.1638 C.ar    1  ZINC000543020509    0.2200
     16 C16       -10.5028   -0.1152   52.7289 C.ar    1  ZINC000543020509   -0.1300
     17 C17       -11.3502   -0.7136   53.6411 C.ar    1  ZINC000543020509   -0.0500
     18 C18       -11.2272   -0.4429   54.9945 C.ar    1  ZINC000543020509   -0.0600
     19 Cl19      -12.2996   -1.2026   56.1288 Cl      1  ZINC000543020509   -0.0500
     20 C20       -10.2555    0.4277   55.4446 C.ar    1  ZINC000543020509   -0.0400
     21 C21        -9.3890    1.0350   54.5337 C.ar    1  ZINC000543020509   -0.0200
     22 C22        -8.3786    1.9393   54.9940 C.1     1  ZINC000543020509    0.2500
     23 N23        -7.5769    2.6567   55.3591 N.1     1  ZINC000543020509   -0.3800
     24 C24        -8.8940    2.5325   51.5809 C.2     1  ZINC000543020509    0.0700
     25 C25        -7.8247    2.7761   50.7902 C.2     1  ZINC000543020509   -0.2400
     26 C26        -3.1795    1.4502   48.9559 C.ar    1  ZINC000543020509   -0.1800
     27 H27        -0.2690   -0.1561   46.3560 H       1  ZINC000543020509    0.0600
     28 H28        -1.5973   -0.9871   47.2006 H       1  ZINC000543020509    0.0700
     29 H29        -1.8151   -0.4399   45.5209 H       1  ZINC000543020509    0.0700
     30 H30        -2.1141    1.7476   44.9930 H       1  ZINC000543020509    0.0800
     31 H31        -3.3038    2.3640   46.1647 H       1  ZINC000543020509    0.0600
     32 H32        -1.6443    3.0075   46.1592 H       1  ZINC000543020509    0.0600
     33 H33         0.1878    1.3629   48.6612 H       1  ZINC000543020509    0.1400
     34 H34        -0.0290    1.7911   51.0744 H       1  ZINC000543020509    0.1700
     35 H35        -5.6360    1.3499   49.3846 H       1  ZINC000543020509    0.4300
     36 H36       -10.6051   -0.3310   51.6756 H       1  ZINC000543020509    0.1500
     37 H37       -12.1133   -1.3961   53.2972 H       1  ZINC000543020509    0.1500
     38 H38       -10.1630    0.6358   56.5003 H       1  ZINC000543020509    0.1500
     39 H39        -9.7723    3.1542   51.6733 H       1  ZINC000543020509    0.1900
     40 H40        -7.6988    3.6259   50.1357 H       1  ZINC000543020509    0.1800
     41 H41        -4.0922    1.3579   48.3858 H       1  ZINC000543020509    0.1500
@<TRIPOS>BOND
     1     1     2    1
     2     1    27    1
     3     1    28    1
     4     1    29    1
     5     2     3    1
     6     2     4    1
     7     3    30    1
     8     3    31    1
     9     3    32    1
    10     4    26   ar
    11     4     5   ar
    12     5     6   ar
    13     5    33    1
    14     6     7   ar
    15     6    34    1
    16     7     8   ar
    17     8     9    1
    18     8    26   ar
    19     9    10    2
    20     9    11   am
    21    11    12    1
    22    11    35    1
    23    12    25    1
    24    12    13    2
    25    13    14    1
    26    14    15    1
    27    14    24    1
    28    15    21   ar
    29    15    16   ar
    30    16    17   ar
    31    16    36    1
    32    17    18   ar
    33    17    37    1
    34    18    19    1
    35    18    20   ar
    36    20    21   ar
    37    20    38    1
    38    21    22    1
    39    22    23    3
    40    24    25    2
    41    24    39    1
    42    25    40    1
    43    26    41    1
@<TRIPOS>SUBSTRUCTURE
     1 ZINC000543020509        1 TEMP              0 ****  ****    0 ROOT


##########                                Name:      oleObject5.pdb
##########                DOCK_Rotatable_Bonds:                   5
##########                         Heavy_Atoms:                  24
##########                    Molecular_Weight:             323.438
##########                DOCK_Rotatable_Bonds:                   5
##########                       Formal_Charge:         0.000200074
##########                     HBond_Acceptors:                   4
##########                        HBond_Donors:                   2
##########                         Heavy_Atoms:                  24
##########                          Grid_Score:          -27.532970
##########                     Grid_vdw_energy:          -27.283852
##########                      Grid_es_energy:           -0.249120
##########           Internal_energy_repulsive:           10.068979

@<TRIPOS>MOLECULE
oleObject5.pdb
 49 51 1 0 0
SMALL
NO_CHARGES


@<TRIPOS>ATOM
      1 C         -10.1556   -0.2795   60.0657 C.3     1  UNL        -0.0394
      2 C          -9.0180    0.4713   59.3803 C.ar    1  UNL        -0.0456
      3 C          -8.4188    1.5387   60.0777 C.ar    1  UNL        -0.0590
      4 C          -7.3830    2.2856   59.4991 C.ar    1  UNL        -0.0620
      5 C          -6.9382    1.9744   58.2086 C.ar    1  UNL        -0.0619
      6 C          -7.5282    0.9159   57.5032 C.ar    1  UNL        -0.0565
      7 C          -8.5643    0.1472   58.0749 C.ar    1  UNL        -0.0188
      8 C          -9.1856   -0.9777   57.2358 C.3     1  UNL         0.0906
      9 N          -8.9307   -0.7209   55.8073 N.am    1  UNL        -0.3025
     10 C          -9.8206   -0.0450   54.9920 C.2     1  UNL         0.2156
     11 O         -10.8001    0.5273   55.4381 O.2     1  UNL        -0.2774
     12 C          -9.3429    0.1055   53.5352 C.3     1  UNL         0.0382
     13 C          -8.5274    1.4111   53.3356 C.3     1  UNL        -0.0292
     14 C          -9.4372    2.6589   53.3298 C.3     1  UNL        -0.0041
     15 N         -10.4801    2.5390   52.2964 N.4     1  UNL        -0.3167
     16 C         -11.3373    1.3522   52.4652 C.3     1  UNL        -0.0041
     17 C         -10.5054    0.0456   52.5065 C.3     1  UNL        -0.0292
     18 C          -8.7002   -2.3651   57.6900 C.ar    1  UNL         0.0681
     19 N          -7.4007   -2.4605   58.0628 N.ar    1  UNL        -0.2587
     20 C          -6.9175   -3.6460   58.4792 C.ar    1  UNL         0.0272
     21 C          -7.7081   -4.8022   58.5500 C.ar    1  UNL        -0.0435
     22 C          -9.0558   -4.7179   58.1727 C.ar    1  UNL        -0.0559
     23 C          -9.5708   -3.4830   57.7349 C.ar    1  UNL        -0.0272
     24 C         -11.0375   -3.3891   57.3334 C.3     1  UNL        -0.0379
     25 H         -10.2637    0.0224   61.1148 H       1  UNL         0.0280
     26 H          -9.9902   -1.3625   60.0637 H       1  UNL         0.0280
     27 H         -11.1135   -0.0774   59.5742 H       1  UNL         0.0280
     28 H          -8.7612    1.7972   61.0760 H       1  UNL         0.0626
     29 H          -6.9313    3.1069   60.0480 H       1  UNL         0.0623
     30 H          -6.1407    2.5543   57.7528 H       1  UNL         0.0623
     31 H          -7.1783    0.6982   56.4985 H       1  UNL         0.0627
     32 H         -10.2719   -0.9736   57.3655 H       1  UNL         0.0624
     33 H          -7.9569   -0.6940   55.5347 H       1  UNL         0.1504
     34 H          -8.6774   -0.7453   53.3396 H       1  UNL         0.0402
     35 H          -7.9960    1.3578   52.3766 H       1  UNL         0.0288
     36 H          -7.7580    1.5149   54.1108 H       1  UNL         0.0288
     37 H          -8.8294    3.5527   53.1410 H       1  UNL         0.0428
     38 H          -9.9039    2.7741   54.3169 H       1  UNL         0.0428
     39 H         -10.0323    2.4952   51.3817 H       1  UNL         0.1222
     40 H         -12.0580    1.2974   51.6396 H       1  UNL         0.0428
     41 H         -11.9121    1.4503   53.3946 H       1  UNL         0.0428
     42 H         -10.0832   -0.1284   51.5083 H       1  UNL         0.0288
     43 H         -11.1597   -0.8090   52.7220 H       1  UNL         0.0288
     44 H          -5.8665   -3.6685   58.7643 H       1  UNL         0.0840
     45 H          -7.2850   -5.7422   58.8915 H       1  UNL         0.0639
     46 H          -9.6895   -5.5989   58.2217 H       1  UNL         0.0627
     47 H         -11.5473   -4.3552   57.4362 H       1  UNL         0.0280
     48 H         -11.1422   -3.0760   56.2874 H       1  UNL         0.0280
     49 H         -11.5739   -2.6702   57.9645 H       1  UNL         0.0280
@<TRIPOS>BOND
     1     1     2    1
     2     1    25    1
     3     1    26    1
     4     1    27    1
     5     2     3   ar
     6     2     7   ar
     7     3     4   ar
     8     3    28    1
     9     4     5   ar
    10     4    29    1
    11     5     6   ar
    12     5    30    1
    13     6     7   ar
    14     6    31    1
    15     7     8    1
    16     8     9    1
    17     8    18    1
    18     8    32    1
    19     9    10   am
    20     9    33    1
    21    10    11    2
    22    10    12    1
    23    12    13    1
    24    12    17    1
    25    12    34    1
    26    13    14    1
    27    13    35    1
    28    13    36    1
    29    14    15    1
    30    14    37    1
    31    14    38    1
    32    15    16    1
    33    15    39    1
    34    16    17    1
    35    16    40    1
    36    16    41    1
    37    17    42    1
    38    17    43    1
    39    18    19   ar
    40    18    23   ar
    41    19    20   ar
    42    20    21   ar
    43    20    44    1
    44    21    22   ar
    45    21    45    1
    46    22    23   ar
    47    22    46    1
    48    23    24    1
    49    24    47    1
    50    24    48    1
    51    24    49    1
@<TRIPOS>SUBSTRUCTURE
     1 UNL         1 TEMP              0 ****  ****    0 ROOT


##########                                Name:    ZINC000623581528
##########                DOCK_Rotatable_Bonds:                   5
##########                         Heavy_Atoms:                  26
##########                    Molecular_Weight:             355.369
##########                DOCK_Rotatable_Bonds:                   5
##########                       Formal_Charge:        -4.47035e-07
##########                     HBond_Acceptors:                   7
##########                        HBond_Donors:                   2
##########                         Heavy_Atoms:                  26
##########                          Grid_Score:          -27.511984
##########                     Grid_vdw_energy:          -25.741613
##########                      Grid_es_energy:           -1.770370
##########           Internal_energy_repulsive:            5.115508

@<TRIPOS>MOLECULE
ZINC000623581528
 44 47 1 0 0
SMALL
USER_CHARGES


@<TRIPOS>ATOM
      1 C1         -5.2319    2.6188   55.8666 C.3     1  ZINC000623581528    0.1000
      2 N2         -6.0916    2.3072   54.7219 N.am    1  ZINC000623581528   -0.5500
      3 C3         -7.2677    1.6503   54.7639 C.2     1  ZINC000623581528    0.6300
      4 O4         -7.7933    1.2151   55.7703 O.2     1  ZINC000623581528   -0.4800
      5 O5         -7.7689    1.5509   53.5226 O.3     1  ZINC000623581528   -0.2300
      6 C6         -6.9192    2.1463   52.6503 C.ar    1  ZINC000623581528    0.0400
      7 C7         -6.9484    2.3271   51.2767 C.ar    1  ZINC000623581528   -0.0800
      8 C8         -5.9130    2.9905   50.6468 C.ar    1  ZINC000623581528   -0.0900
      9 C9         -4.8453    3.4756   51.3811 C.ar    1  ZINC000623581528   -0.0900
     10 C10        -3.7207    4.1978   50.6847 C.3     1  ZINC000623581528    0.1800
     11 N11        -2.6305    3.2575   50.4134 N.am    1  ZINC000623581528   -0.7400
     12 C12        -2.5890    2.5941   49.2410 C.2     1  ZINC000623581528    0.7100
     13 O13        -3.4570    2.7748   48.4091 O.2     1  ZINC000623581528   -0.5800
     14 N14        -1.5851    1.7303   48.9908 N.am    1  ZINC000623581528   -0.7300
     15 C15        -1.5389    1.0105   47.7155 C.3     1  ZINC000623581528    0.2000
     16 H16        -2.5460    0.7412   47.3973 H       1  ZINC000623581528    0.1000
     17 C17        -0.6625   -0.2533   47.8454 C.3     1  ZINC000623581528   -0.1300
     18 C18         0.7246    0.2584   47.4022 C.3     1  ZINC000623581528   -0.0800
     19 C19         0.4405    1.4240   46.4791 C.ar    1  ZINC000623581528   -0.1000
     20 C20         1.2559    2.0557   45.5552 C.ar    1  ZINC000623581528   -0.0800
     21 C21         0.7744    3.1159   44.8125 C.ar    1  ZINC000623581528   -0.1400
     22 C22        -0.5279    3.5495   44.9920 C.ar    1  ZINC000623581528    0.0900
     23 F23        -1.0022    4.5859   44.2668 F       1  ZINC000623581528   -0.1400
     24 C24        -1.3433    2.9191   45.9153 C.ar    1  ZINC000623581528   -0.1200
     25 C25        -0.8629    1.8572   46.6586 C.ar    1  ZINC000623581528   -0.0900
     26 C26        -4.8073    3.3000   52.7511 C.ar    1  ZINC000623581528   -0.0800
     27 C27        -5.8454    2.6414   53.3906 C.ar    1  ZINC000623581528    0.0700
     28 H28        -5.5161    3.5857   56.2818 H       1  ZINC000623581528    0.0800
     29 H29        -5.3479    1.8479   56.6285 H       1  ZINC000623581528    0.0900
     30 H30        -4.1923    2.6544   55.5411 H       1  ZINC000623581528    0.0900
     31 H31        -7.7793    1.9497   50.6993 H       1  ZINC000623581528    0.1500
     32 H32        -5.9369    3.1308   49.5762 H       1  ZINC000623581528    0.1500
     33 H33        -4.0833    4.6147   49.7452 H       1  ZINC000623581528    0.0800
     34 H34        -3.3558    5.0028   51.3227 H       1  ZINC000623581528    0.0800
     35 H35        -1.9386    3.1125   51.0776 H       1  ZINC000623581528    0.4000
     36 H36        -0.8932    1.5852   49.6549 H       1  ZINC000623581528    0.4000
     37 H37        -0.6352   -0.6014   48.8780 H       1  ZINC000623581528    0.0900
     38 H38        -1.0161   -1.0402   47.1793 H       1  ZINC000623581528    0.0900
     39 H39         1.2988    0.5917   48.2666 H       1  ZINC000623581528    0.0800
     40 H40         1.2635   -0.5243   46.8683 H       1  ZINC000623581528    0.0800
     41 H41         2.2720    1.7179   45.4146 H       1  ZINC000623581528    0.1300
     42 H42         1.4132    3.6062   44.0929 H       1  ZINC000623581528    0.1400
     43 H43        -2.3594    3.2570   46.0557 H       1  ZINC000623581528    0.1400
     44 H44        -3.9731    3.6793   53.3226 H       1  ZINC000623581528    0.1400
@<TRIPOS>BOND
     1     1     2    1
     2     1    28    1
     3     1    29    1
     4     1    30    1
     5     2    27    1
     6     2     3   am
     7     3     4    2
     8     3     5    1
     9     5     6    1
    10     6    27   ar
    11     6     7   ar
    12     7     8   ar
    13     7    31    1
    14     8     9   ar
    15     8    32    1
    16     9    10    1
    17     9    26   ar
    18    10    11    1
    19    10    33    1
    20    10    34    1
    21    11    12   am
    22    11    35    1
    23    12    13    2
    24    12    14   am
    25    14    15    1
    26    14    36    1
    27    15    16    1
    28    15    25    1
    29    15    17    1
    30    17    18    1
    31    17    37    1
    32    17    38    1
    33    18    19    1
    34    18    39    1
    35    18    40    1
    36    19    25   ar
    37    19    20   ar
    38    20    21   ar
    39    20    41    1
    40    21    22   ar
    41    21    42    1
    42    22    23    1
    43    22    24   ar
    44    24    25   ar
    45    24    43    1
    46    26    27   ar
    47    26    44    1
@<TRIPOS>SUBSTRUCTURE
     1 ZINC000623581528        1 TEMP              0 ****  ****    0 ROOT


##########                                Name:    ZINC000422507946
##########                DOCK_Rotatable_Bonds:                   7
##########                         Heavy_Atoms:                  25
##########                    Molecular_Weight:             364.484
##########                DOCK_Rotatable_Bonds:                   7
##########                       Formal_Charge:          0.00999952
##########                     HBond_Acceptors:                   6
##########                        HBond_Donors:                   1
##########                         Heavy_Atoms:                  25
##########                          Grid_Score:          -27.437778
##########                     Grid_vdw_energy:          -27.037514
##########                      Grid_es_energy:           -0.400266
##########           Internal_energy_repulsive:           37.869884

@<TRIPOS>MOLECULE
ZINC000422507946
 50 52 1 0 0
SMALL
USER_CHARGES


@<TRIPOS>ATOM
      1 C1        -18.6111   -0.5441   58.1429 C.3     1  ZINC000422507946   -0.1400
      2 C2        -17.9707   -1.8778   57.7531 C.3     1  ZINC000422507946   -0.0400
      3 H3        -18.2471   -2.6540   58.4667 H       1  ZINC000422507946    0.1100
      4 C4        -16.4361   -1.7365   57.6799 C.3     1  ZINC000422507946   -0.1400
      5 C5        -15.9016   -2.6654   56.5760 C.3     1  ZINC000422507946    0.1400
      6 H6        -15.9684   -3.7042   56.8988 H       1  ZINC000422507946    0.1100
      7 N7        -14.5103   -2.3262   56.2667 N.am    1  ZINC000422507946   -0.6900
      8 C8        -13.5132   -2.8013   57.0391 C.2     1  ZINC000422507946    0.5100
      9 O9        -13.7677   -3.5112   57.9897 O.2     1  ZINC000422507946   -0.5000
     10 C10       -12.0941   -2.4539   56.7246 C.2     1  ZINC000422507946    0.5100
     11 O11       -11.6524   -2.6548   55.6124 O.2     1  ZINC000422507946   -0.5200
     12 N12       -11.3050   -1.9173   57.6765 N.am    1  ZINC000422507946   -0.5700
     13 C13        -9.9138   -1.5767   57.3682 C.3     1  ZINC000422507946    0.1400
     14 C14        -9.0129   -2.7052   57.7994 C.ar    1  ZINC000422507946   -0.0800
     15 C15        -7.7127   -2.4415   58.1873 C.ar    1  ZINC000422507946   -0.1100
     16 C16        -6.8850   -3.4757   58.5832 C.ar    1  ZINC000422507946   -0.0900
     17 C17        -7.3568   -4.7744   58.5914 C.ar    1  ZINC000422507946   -0.1500
     18 C18        -8.6594   -5.0398   58.2034 C.ar    1  ZINC000422507946    0.1000
     19 F19        -9.1217   -6.3091   58.2110 F       1  ZINC000422507946   -0.1400
     20 C20        -9.4888   -4.0027   57.8122 C.ar    1  ZINC000422507946   -0.1500
     21 C21       -11.8383   -1.6746   59.0191 C.3     1  ZINC000422507946    0.1400
     22 C22       -10.7221   -1.1461   59.9435 C.3     1  ZINC000422507946   -0.1200
     23 C23       -10.8854    0.3934   59.8945 C.3     1  ZINC000422507946   -0.1300
     24 C24       -12.4235    0.5730   59.8616 C.3     1  ZINC000422507946   -0.1200
     25 C25       -12.9201   -0.5815   58.9671 C.3     1  ZINC000422507946   -0.1600
     26 C26       -16.7931   -2.4403   55.3264 C.3     1  ZINC000422507946   -0.0900
     27 S27       -18.4760   -2.3579   56.0600 S.3     1  ZINC000422507946   -0.2700
     28 H28       -19.6954   -0.6535   58.1621 H       1  ZINC000422507946    0.0700
     29 H29       -18.2584   -0.2464   59.1303 H       1  ZINC000422507946    0.0700
     30 H30       -18.3357    0.2180   57.4138 H       1  ZINC000422507946    0.0700
     31 H31       -16.1745   -0.7041   57.4477 H       1  ZINC000422507946    0.0900
     32 H32       -15.9969   -2.0159   58.6375 H       1  ZINC000422507946    0.0900
     33 H33       -14.3068   -1.7597   55.5060 H       1  ZINC000422507946    0.4100
     34 H34        -9.8081   -1.4171   56.2951 H       1  ZINC000422507946    0.1100
     35 H35        -9.6362   -0.6666   57.9000 H       1  ZINC000422507946    0.1000
     36 H36        -7.3430   -1.4267   58.1808 H       1  ZINC000422507946    0.1400
     37 H37        -5.8692   -3.2685   58.8858 H       1  ZINC000422507946    0.1300
     38 H38        -6.7098   -5.5822   58.9000 H       1  ZINC000422507946    0.1400
     39 H39       -10.5050   -4.2084   57.5097 H       1  ZINC000422507946    0.1400
     40 H40       -12.2568   -2.5950   59.4264 H       1  ZINC000422507946    0.1100
     41 H41       -10.8633   -1.5126   60.9603 H       1  ZINC000422507946    0.0800
     42 H42        -9.7427   -1.4380   59.5645 H       1  ZINC000422507946    0.0600
     43 H43       -10.4616    0.8554   60.7862 H       1  ZINC000422507946    0.0700
     44 H44       -10.4294    0.8017   58.9927 H       1  ZINC000422507946    0.0600
     45 H45       -12.8396    0.4841   60.8650 H       1  ZINC000422507946    0.0700
     46 H46       -12.6858    1.5357   59.4226 H       1  ZINC000422507946    0.0700
     47 H47       -13.0483   -0.2317   57.9427 H       1  ZINC000422507946    0.0900
     48 H48       -13.8633   -0.9712   59.3497 H       1  ZINC000422507946    0.0800
     49 H49       -16.5381   -1.5033   54.8314 H       1  ZINC000422507946    0.1000
     50 H50       -16.7124   -3.2798   54.6358 H       1  ZINC000422507946    0.1100
@<TRIPOS>BOND
     1     1     2    1
     2     1    28    1
     3     1    29    1
     4     1    30    1
     5     2     3    1
     6     2    27    1
     7     2     4    1
     8     4     5    1
     9     4    31    1
    10     4    32    1
    11     5     6    1
    12     5     7    1
    13     5    26    1
    14     7     8   am
    15     7    33    1
    16     8     9    2
    17     8    10    1
    18    10    11    2
    19    10    12   am
    20    12    13    1
    21    12    21    1
    22    13    14    1
    23    13    34    1
    24    13    35    1
    25    14    20   ar
    26    14    15   ar
    27    15    16   ar
    28    15    36    1
    29    16    17   ar
    30    16    37    1
    31    17    18   ar
    32    17    38    1
    33    18    19    1
    34    18    20   ar
    35    20    39    1
    36    21    25    1
    37    21    22    1
    38    21    40    1
    39    22    23    1
    40    22    41    1
    41    22    42    1
    42    23    24    1
    43    23    43    1
    44    23    44    1
    45    24    25    1
    46    24    45    1
    47    24    46    1
    48    25    47    1
    49    25    48    1
    50    26    27    1
    51    26    49    1
    52    26    50    1
@<TRIPOS>SUBSTRUCTURE
     1 ZINC000422507946        1 TEMP              0 ****  ****    0 ROOT


##########                                Name:    ZINC000464867530
##########                DOCK_Rotatable_Bonds:                   8
##########                         Heavy_Atoms:                  30
##########                    Molecular_Weight:              422.49
##########                DOCK_Rotatable_Bonds:                   8
##########                       Formal_Charge:         -0.00999994
##########                     HBond_Acceptors:                   7
##########                        HBond_Donors:                   0
##########                         Heavy_Atoms:                  30
##########                          Grid_Score:          -27.323000
##########                     Grid_vdw_energy:          -26.857403
##########                      Grid_es_energy:           -0.465597
##########           Internal_energy_repulsive:           30.681011

@<TRIPOS>MOLECULE
ZINC000464867530
 59 62 1 0 0
SMALL
USER_CHARGES


@<TRIPOS>ATOM
      1 C1         -9.4715    4.5954   50.6645 C.3     1  ZINC000464867530   -0.1500
      2 C2         -8.8358    3.7004   49.5987 C.3     1  ZINC000464867530   -0.1400
      3 C3         -8.0587    2.5712   50.2784 C.3     1  ZINC000464867530    0.0900
      4 N4         -6.9208    3.1333   51.0103 N.am    1  ZINC000464867530   -0.6100
      5 C5         -6.9546    3.2061   52.4731 C.3     1  ZINC000464867530    0.0700
      6 C6         -6.5851    1.8424   53.0604 C.3     1  ZINC000464867530    0.4300
      7 F7         -6.4757    1.9478   54.4511 F       1  ZINC000464867530   -0.1700
      8 F8         -7.5793    0.9119   52.7399 F       1  ZINC000464867530   -0.1800
      9 F9         -5.3624    1.4209   52.5270 F       1  ZINC000464867530   -0.1800
     10 C10        -5.8430    3.5833   50.3378 C.2     1  ZINC000464867530    0.5300
     11 O11        -5.8152    3.5229   49.1268 O.2     1  ZINC000464867530   -0.5100
     12 C12        -4.6725    4.1615   51.0905 C.3     1  ZINC000464867530   -0.1200
     13 H13        -4.5417    3.6229   52.0292 H       1  ZINC000464867530    0.1000
     14 C14        -4.9334    5.6408   51.3826 C.3     1  ZINC000464867530   -0.1200
     15 C15        -3.7599    6.2207   52.1755 C.3     1  ZINC000464867530   -0.1300
     16 C16        -2.4805    6.1111   51.3401 C.3     1  ZINC000464867530    0.1000
     17 N17        -2.3003    4.7111   50.9326 N.am    1  ZINC000464867530   -0.6100
     18 C18        -1.1450    4.0652   51.1868 C.2     1  ZINC000464867530    0.5500
     19 O19        -0.2424    4.6392   51.7584 O.2     1  ZINC000464867530   -0.5300
     20 C20        -0.9748    2.6296   50.7610 C.3     1  ZINC000464867530   -0.1700
     21 H21        -1.7564    1.9453   51.0911 H       1  ZINC000464867530    0.1300
     22 C22         0.4527    2.0828   50.6714 C.3     1  ZINC000464867530   -0.1300
     23 C23        -0.3398    2.3694   49.4001 C.3     1  ZINC000464867530   -0.0600
     24 C24         0.0439    3.5297   48.4667 C.3     1  ZINC000464867530   -0.0900
     25 C25        -0.8446    3.2631   47.2315 C.3     1  ZINC000464867530   -0.0800
     26 C26        -1.1133    1.7730   47.2489 C.ar    1  ZINC000464867530   -0.0900
     27 C27        -1.5748    0.9334   46.2499 C.ar    1  ZINC000464867530   -0.1100
     28 C28        -1.7479   -0.4145   46.4979 C.ar    1  ZINC000464867530   -0.1100
     29 C29        -1.4595   -0.9278   47.7483 C.ar    1  ZINC000464867530   -0.1200
     30 C30        -0.9986   -0.0921   48.7470 C.ar    1  ZINC000464867530   -0.1000
     31 C31        -0.8237    1.2591   48.5012 C.ar    1  ZINC000464867530   -0.0700
     32 C32        -3.4033    4.0278   50.2431 C.3     1  ZINC000464867530    0.1300
     33 H33       -10.1517    4.0038   51.2771 H       1  ZINC000464867530    0.0600
     34 H34        -8.6906    5.0202   51.2951 H       1  ZINC000464867530    0.0600
     35 H35       -10.0251    5.3999   50.1802 H       1  ZINC000464867530    0.0600
     36 H36        -9.6167    3.2757   48.9680 H       1  ZINC000464867530    0.0700
     37 H37        -8.1556    4.2920   48.9860 H       1  ZINC000464867530    0.0700
     38 H38        -8.7141    2.0463   50.9733 H       1  ZINC000464867530    0.0900
     39 H39        -7.6963    1.8737   49.5234 H       1  ZINC000464867530    0.0900
     40 H40        -6.2406    3.9549   52.8161 H       1  ZINC000464867530    0.1300
     41 H41        -7.9568    3.4830   52.8001 H       1  ZINC000464867530    0.1200
     42 H42        -5.0401    6.1832   50.4431 H       1  ZINC000464867530    0.0800
     43 H43        -5.8495    5.7400   51.9649 H       1  ZINC000464867530    0.0800
     44 H44        -3.9570    7.2683   52.4033 H       1  ZINC000464867530    0.0900
     45 H45        -3.6370    5.6629   53.1039 H       1  ZINC000464867530    0.0700
     46 H46        -2.5670    6.7412   50.4548 H       1  ZINC000464867530    0.0700
     47 H47        -1.6261    6.4309   51.9365 H       1  ZINC000464867530    0.0900
     48 H48         1.2684    2.7615   50.9205 H       1  ZINC000464867530    0.1100
     49 H49         0.6098    1.0387   50.9418 H       1  ZINC000464867530    0.1100
     50 H50        -0.2006    4.4901   48.9206 H       1  ZINC000464867530    0.0700
     51 H51         1.1004    3.4820   48.2023 H       1  ZINC000464867530    0.0800
     52 H52        -1.7800    3.8168   47.3121 H       1  ZINC000464867530    0.0800
     53 H53        -0.3171    3.5414   46.3192 H       1  ZINC000464867530    0.0800
     54 H54        -1.8008    1.3338   45.2726 H       1  ZINC000464867530    0.1200
     55 H55        -2.1085   -1.0663   45.7159 H       1  ZINC000464867530    0.1300
     56 H56        -1.5947   -1.9811   47.9446 H       1  ZINC000464867530    0.1300
     57 H57        -0.7741   -0.4946   49.7238 H       1  ZINC000464867530    0.1200
     58 H58        -3.1574    2.9736   50.1157 H       1  ZINC000464867530    0.1000
     59 H59        -3.5656    4.4876   49.2682 H       1  ZINC000464867530    0.0800
@<TRIPOS>BOND
     1     1     2    1
     2     1    33    1
     3     1    34    1
     4     1    35    1
     5     2     3    1
     6     2    36    1
     7     2    37    1
     8     3     4    1
     9     3    38    1
    10     3    39    1
    11     4     5    1
    12     4    10   am
    13     5     6    1
    14     5    40    1
    15     5    41    1
    16     6     7    1
    17     6     8    1
    18     6     9    1
    19    10    11    2
    20    10    12    1
    21    12    13    1
    22    12    32    1
    23    12    14    1
    24    14    15    1
    25    14    42    1
    26    14    43    1
    27    15    16    1
    28    15    44    1
    29    15    45    1
    30    16    17    1
    31    16    46    1
    32    16    47    1
    33    17    18   am
    34    17    32    1
    35    18    19    2
    36    18    20    1
    37    20    21    1
    38    20    23    1
    39    20    22    1
    40    22    23    1
    41    22    48    1
    42    22    49    1
    43    23    31    1
    44    23    24    1
    45    24    25    1
    46    24    50    1
    47    24    51    1
    48    25    26    1
    49    25    52    1
    50    25    53    1
    51    26    31   ar
    52    26    27   ar
    53    27    28   ar
    54    27    54    1
    55    28    29   ar
    56    28    55    1
    57    29    30   ar
    58    29    56    1
    59    30    31   ar
    60    30    57    1
    61    32    58    1
    62    32    59    1
@<TRIPOS>SUBSTRUCTURE
     1 ZINC000464867530        1 TEMP              0 ****  ****    0 ROOT


##########                                Name:    ZINC000252489163
##########                DOCK_Rotatable_Bonds:                   6
##########                         Heavy_Atoms:                  25
##########                    Molecular_Weight:             379.403
##########                DOCK_Rotatable_Bonds:                   6
##########                       Formal_Charge:          0.00999963
##########                     HBond_Acceptors:                  10
##########                        HBond_Donors:                   2
##########                         Heavy_Atoms:                  25
##########                          Grid_Score:          -27.299818
##########                     Grid_vdw_energy:          -26.979828
##########                      Grid_es_energy:           -0.319991
##########           Internal_energy_repulsive:            9.979701

@<TRIPOS>MOLECULE
ZINC000252489163
 45 46 1 0 0
SMALL
USER_CHARGES


@<TRIPOS>ATOM
      1 C1          0.7121    2.1626   51.7748 C.3     1  ZINC000252489163   -0.1100
      2 C2         -0.3563    1.9909   50.7260 C.ar    1  ZINC000252489163   -0.0600
      3 C3         -1.5862    2.5973   50.8887 C.ar    1  ZINC000252489163   -0.1300
      4 C4         -2.5703    2.4390   49.9214 C.ar    1  ZINC000252489163    0.1700
      5 N5         -3.8176    3.0527   50.0830 N.am    1  ZINC000252489163   -0.6800
      6 C6         -4.9212    2.2996   50.2601 C.2     1  ZINC000252489163    0.7100
      7 O7         -4.8332    1.0871   50.2795 O.2     1  ZINC000252489163   -0.5500
      8 N8         -6.1225    2.8907   50.4158 N.am    1  ZINC000252489163   -0.6200
      9 C9         -6.2448    4.3547   50.3947 C.3     1  ZINC000252489163    0.1000
     10 C10        -6.9705    4.8072   51.6656 C.3     1  ZINC000252489163   -0.1400
     11 C11        -8.3051    4.0665   51.7772 C.3     1  ZINC000252489163   -0.1300
     12 C12        -8.0482    2.5612   51.8777 C.3     1  ZINC000252489163    0.1400
     13 H13        -7.4225    2.3561   52.7463 H       1  ZINC000252489163    0.0900
     14 N14        -9.3245    1.8554   52.0168 N.am    1  ZINC000252489163   -1.1100
     15 S15        -9.4069    0.4610   52.9063 S.o2    1  ZINC000252489163    2.6100
     16 C16       -11.1460   -0.0433   52.7974 C.3     1  ZINC000252489163   -0.6700
     17 O17        -8.5775   -0.4532   52.2024 O.2     1  ZINC000252489163   -0.9500
     18 O18        -9.0883    0.8701   54.2294 O.2     1  ZINC000252489163   -0.9500
     19 C19        -7.3354    2.0831   50.6035 C.3     1  ZINC000252489163    0.1100
     20 C20        -2.3138    1.6710   48.7936 C.ar    1  ZINC000252489163   -0.1000
     21 C21        -1.0814    1.0669   48.6367 C.ar    1  ZINC000252489163   -0.1600
     22 C22        -0.8021    0.2330   47.4128 C.3     1  ZINC000252489163    0.5100
     23 F23         0.1431   -0.7502   47.7243 F       1  ZINC000252489163   -0.1700
     24 F24        -1.9859   -0.3772   46.9843 F       1  ZINC000252489163   -0.1800
     25 F25        -0.3044    1.0524   46.3939 F       1  ZINC000252489163   -0.1800
     26 C26        -0.1021    1.2308   49.5989 C.ar    1  ZINC000252489163   -0.0900
     27 H27         1.3133    3.0411   51.5406 H       1  ZINC000252489163    0.0800
     28 H28         0.2454    2.2915   52.7513 H       1  ZINC000252489163    0.0700
     29 H29         1.3506    1.2792   51.7910 H       1  ZINC000252489163    0.0700
     30 H30        -1.7829    3.1939   51.7672 H       1  ZINC000252489163    0.1300
     31 H31        -3.8878    4.0200   50.0676 H       1  ZINC000252489163    0.4100
     32 H32        -5.2521    4.8038   50.3612 H       1  ZINC000252489163    0.0800
     33 H33        -6.8165    4.6610   49.5186 H       1  ZINC000252489163    0.0800
     34 H34        -6.3550    4.5809   52.5362 H       1  ZINC000252489163    0.0700
     35 H35        -7.1532    5.8807   51.6176 H       1  ZINC000252489163    0.0900
     36 H36        -8.8348    4.4048   52.6678 H       1  ZINC000252489163    0.0800
     37 H37        -8.9103    4.2734   50.8945 H       1  ZINC000252489163    0.0800
     38 H38       -10.1212    2.2051   51.5880 H       1  ZINC000252489163    0.4200
     39 H39       -11.4111   -0.2103   51.7534 H       1  ZINC000252489163    0.1300
     40 H40       -11.2932   -0.9643   53.3614 H       1  ZINC000252489163    0.1300
     41 H41       -11.7786    0.7416   53.2117 H       1  ZINC000252489163    0.1300
     42 H42        -7.9981    2.2046   49.7467 H       1  ZINC000252489163    0.0800
     43 H43        -7.0612    1.0336   50.7101 H       1  ZINC000252489163    0.1100
     44 H44        -3.0770    1.5456   48.0398 H       1  ZINC000252489163    0.1800
     45 H45         0.8607    0.7578   49.4738 H       1  ZINC000252489163    0.1300
@<TRIPOS>BOND
     1     1     2    1
     2     1    27    1
     3     1    28    1
     4     1    29    1
     5     2    26   ar
     6     2     3   ar
     7     3     4   ar
     8     3    30    1
     9     4     5    1
    10     4    20   ar
    11     5     6   am
    12     5    31    1
    13     6     7    2
    14     6     8   am
    15     8    19    1
    16     8     9    1
    17     9    10    1
    18     9    32    1
    19     9    33    1
    20    10    11    1
    21    10    34    1
    22    10    35    1
    23    11    12    1
    24    11    36    1
    25    11    37    1
    26    12    13    1
    27    12    14    1
    28    12    19    1
    29    14    15   am
    30    14    38    1
    31    15    16    1
    32    15    17    2
    33    15    18    2
    34    16    39    1
    35    16    40    1
    36    16    41    1
    37    19    42    1
    38    19    43    1
    39    20    21   ar
    40    20    44    1
    41    21    22    1
    42    21    26   ar
    43    22    23    1
    44    22    24    1
    45    22    25    1
    46    26    45    1
@<TRIPOS>SUBSTRUCTURE
     1 ZINC000252489163        1 TEMP              0 ****  ****    0 ROOT


##########                                Name:    ZINC001401207732
##########                DOCK_Rotatable_Bonds:                   8
##########                         Heavy_Atoms:                  23
##########                    Molecular_Weight:             337.446
##########                DOCK_Rotatable_Bonds:                   8
##########                       Formal_Charge:          -0.0199995
##########                     HBond_Acceptors:                   8
##########                        HBond_Donors:                   1
##########                         Heavy_Atoms:                  23
##########                          Grid_Score:          -27.291809
##########                     Grid_vdw_energy:          -26.608068
##########                      Grid_es_energy:           -0.683741
##########           Internal_energy_repulsive:           23.292150

@<TRIPOS>MOLECULE
ZINC001401207732
 46 47 1 0 0
SMALL
USER_CHARGES


@<TRIPOS>ATOM
      1 C1         -7.0015    5.1711   51.6031 C.3     1  ZINC001401207732   -0.0900
      2 C2         -7.1660    3.6782   51.4784 C.2     1  ZINC001401207732    0.1500
      3 C3         -7.3398    2.8640   52.5496 C.2     1  ZINC001401207732   -0.3000
      4 C4         -7.3941    3.2825   53.9543 C.2     1  ZINC001401207732    0.6100
      5 O5         -8.3620    3.8913   54.3708 O.2     1  ZINC001401207732   -0.5200
      6 N6         -6.3722    2.9928   54.7839 N.am    1  ZINC001401207732   -0.5900
      7 C7         -5.2070    2.2599   54.2824 C.3     1  ZINC001401207732    0.0700
      8 C8         -6.4265    3.4108   56.1869 C.3     1  ZINC001401207732    0.1400
      9 H9         -5.5293    3.0689   56.7029 H       1  ZINC001401207732    0.1100
     10 C10        -6.5074    4.9369   56.2616 C.3     1  ZINC001401207732   -0.1600
     11 C11        -7.6616    2.8014   56.8532 C.3     1  ZINC001401207732    0.0500
     12 N12        -7.5901    1.3365   56.7702 N.3     1  ZINC001401207732   -0.6800
     13 C13        -7.0224    0.7667   57.9996 C.3     1  ZINC001401207732    0.1500
     14 C14        -7.3356   -0.7061   58.0619 C.2     1  ZINC001401207732    0.1800
     15 N15        -8.2980   -1.3274   57.4236 N.2     1  ZINC001401207732   -0.4800
     16 C16        -8.1940   -2.6198   57.7813 C.2     1  ZINC001401207732    0.1800
     17 C17        -9.0771   -3.7482   57.3147 C.3     1  ZINC001401207732   -0.0100
     18 C18        -8.9994   -4.9036   58.3146 C.3     1  ZINC001401207732   -0.1500
     19 C19       -10.5226   -3.2567   57.2148 C.3     1  ZINC001401207732   -0.1500
     20 N20        -7.1923   -2.7166   58.6035 N.2     1  ZINC001401207732   -0.3800
     21 O21        -6.6820   -1.6294   58.7734 O.3     1  ZINC001401207732    0.0900
     22 S22        -7.4809    1.2126   51.9512 S.3     1  ZINC001401207732    0.1800
     23 C23        -7.3055    1.7697   50.3446 C.2     1  ZINC001401207732    0.0100
     24 N24        -7.1541    3.0551   50.3270 N.2     1  ZINC001401207732   -0.4800
     25 H25        -5.9438    5.4126   51.7084 H       1  ZINC001401207732    0.0800
     26 H26        -7.3980    5.6559   50.7110 H       1  ZINC001401207732    0.0800
     27 H27        -7.5440    5.5244   52.4801 H       1  ZINC001401207732    0.1000
     28 H28        -5.4126    1.1896   54.3076 H       1  ZINC001401207732    0.0600
     29 H29        -4.9988    2.5659   53.2572 H       1  ZINC001401207732    0.0800
     30 H30        -4.3428    2.4785   54.9096 H       1  ZINC001401207732    0.0900
     31 H31        -6.5478    5.2478   57.3056 H       1  ZINC001401207732    0.0700
     32 H32        -5.6275    5.3711   55.7870 H       1  ZINC001401207732    0.0700
     33 H33        -7.4046    5.2789   55.7457 H       1  ZINC001401207732    0.0600
     34 H34        -8.5593    3.1508   56.3430 H       1  ZINC001401207732    0.0800
     35 H35        -7.6970    3.1048   57.8995 H       1  ZINC001401207732    0.0500
     36 H36        -7.0634    1.0456   55.9602 H       1  ZINC001401207732    0.3600
     37 H37        -7.4556    1.2672   58.8657 H       1  ZINC001401207732    0.1100
     38 H38        -5.9417    0.9088   58.0007 H       1  ZINC001401207732    0.0800
     39 H39        -8.7415   -4.0914   56.3360 H       1  ZINC001401207732    0.1000
     40 H40        -9.6381   -5.7198   57.9771 H       1  ZINC001401207732    0.0700
     41 H41        -7.9696   -5.2538   58.3858 H       1  ZINC001401207732    0.0600
     42 H42        -9.3350   -4.5605   59.2932 H       1  ZINC001401207732    0.0600
     43 H43       -10.5780   -2.4335   56.5025 H       1  ZINC001401207732    0.0600
     44 H44       -11.1613   -4.0728   56.8772 H       1  ZINC001401207732    0.0700
     45 H45       -10.8582   -2.9135   58.1934 H       1  ZINC001401207732    0.0600
     46 H46        -7.3149    1.1381   49.4686 H       1  ZINC001401207732    0.2000
@<TRIPOS>BOND
     1     1     2    1
     2     1    25    1
     3     1    26    1
     4     1    27    1
     5     2    24    1
     6     2     3    2
     7     3     4    1
     8     3    22    1
     9     4     5    2
    10     4     6   am
    11     6     7    1
    12     6     8    1
    13     7    28    1
    14     7    29    1
    15     7    30    1
    16     8     9    1
    17     8    10    1
    18     8    11    1
    19    10    31    1
    20    10    32    1
    21    10    33    1
    22    11    12    1
    23    11    34    1
    24    11    35    1
    25    12    13    1
    26    12    36    1
    27    13    14    1
    28    13    37    1
    29    13    38    1
    30    14    21    1
    31    14    15    2
    32    15    16    1
    33    16    17    1
    34    16    20    2
    35    17    18    1
    36    17    19    1
    37    17    39    1
    38    18    40    1
    39    18    41    1
    40    18    42    1
    41    19    43    1
    42    19    44    1
    43    19    45    1
    44    20    21    1
    45    22    23    1
    46    23    24    2
    47    23    46    1
@<TRIPOS>SUBSTRUCTURE
     1 ZINC001401207732        1 TEMP              0 ****  ****    0 ROOT


##########                                Name:    ZINC000477669194
##########                DOCK_Rotatable_Bonds:                   6
##########                         Heavy_Atoms:                  26
##########                    Molecular_Weight:             387.483
##########                DOCK_Rotatable_Bonds:                   6
##########                       Formal_Charge:         4.47035e-07
##########                     HBond_Acceptors:                   8
##########                        HBond_Donors:                   2
##########                         Heavy_Atoms:                  26
##########                          Grid_Score:          -27.285185
##########                     Grid_vdw_energy:          -25.602741
##########                      Grid_es_energy:           -1.682443
##########           Internal_energy_repulsive:           10.159218

@<TRIPOS>MOLECULE
ZINC000477669194
 43 45 1 0 0
SMALL
USER_CHARGES


@<TRIPOS>ATOM
      1 C1        -12.7637   -2.8133   57.2305 C.3     1  ZINC000477669194   -0.0800
      2 C2        -11.3134   -2.4049   57.2007 C.2     1  ZINC000477669194    0.0500
      3 N3        -10.8324   -1.4564   56.4739 N.2     1  ZINC000477669194   -0.4900
      4 C4         -9.5309   -1.2246   56.5670 C.2     1  ZINC000477669194    0.1200
      5 C5         -8.8424   -0.1653   55.7903 C.ar    1  ZINC000477669194   -0.0600
      6 C6         -9.0230   -0.0789   54.4124 C.ar    1  ZINC000477669194   -0.0800
      7 C7         -8.3797    0.9091   53.6935 C.ar    1  ZINC000477669194   -0.1400
      8 C8         -7.5553    1.8150   54.3367 C.ar    1  ZINC000477669194   -0.0900
      9 C9         -7.3678    1.7390   55.7041 C.ar    1  ZINC000477669194   -0.1300
     10 C10        -8.0123    0.7560   56.4398 C.ar    1  ZINC000477669194    0.1800
     11 N11        -7.8244    0.6779   57.8225 N.am    1  ZINC000477669194   -0.6500
     12 C12        -8.6221    1.3797   58.6517 C.2     1  ZINC000477669194    0.5600
     13 O13        -9.5055    2.0808   58.1967 O.2     1  ZINC000477669194   -0.5200
     14 C14        -8.4239    1.2974   60.1109 C.ar    1  ZINC000477669194   -0.1500
     15 C15        -8.9875    2.2633   60.9499 C.ar    1  ZINC000477669194   -0.0600
     16 C16        -8.8012    2.1835   62.3110 C.ar    1  ZINC000477669194   -0.1400
     17 C17        -8.0523    1.1424   62.8527 C.ar    1  ZINC000477669194    0.1700
     18 N18        -7.8658    1.0646   64.2285 N.am    1  ZINC000477669194   -1.0600
     19 S19        -9.0903    0.5183   65.2004 S.o2    1  ZINC000477669194    2.6100
     20 C20       -10.4516    1.6817   64.9106 C.3     1  ZINC000477669194   -0.6700
     21 O21        -9.4092   -0.7631   64.6755 O.2     1  ZINC000477669194   -0.9400
     22 O22        -8.5822    0.6640   66.5195 O.2     1  ZINC000477669194   -0.9500
     23 C23        -7.4901    0.1787   62.0199 C.ar    1  ZINC000477669194   -0.1600
     24 C24        -7.6769    0.2502   60.6585 C.ar    1  ZINC000477669194   -0.0300
     25 C25        -8.8880   -2.0366   57.4305 C.2     1  ZINC000477669194   -0.2600
     26 S26       -10.0776   -3.1304   58.1322 S.3     1  ZINC000477669194    0.1500
     27 H27       -12.8950   -3.6362   57.9331 H       1  ZINC000477669194    0.0800
     28 H28       -13.3733   -1.9662   57.5449 H       1  ZINC000477669194    0.0900
     29 H29       -13.0716   -3.1329   56.2349 H       1  ZINC000477669194    0.0900
     30 H30        -9.6653   -0.7843   53.9062 H       1  ZINC000477669194    0.1300
     31 H31        -8.5204    0.9747   52.6247 H       1  ZINC000477669194    0.1300
     32 H32        -7.0555    2.5850   53.7678 H       1  ZINC000477669194    0.1300
     33 H33        -6.7225    2.4486   56.2005 H       1  ZINC000477669194    0.1500
     34 H34        -7.1197    0.1188   58.1854 H       1  ZINC000477669194    0.4200
     35 H35        -9.5683    3.0714   60.5303 H       1  ZINC000477669194    0.1300
     36 H36        -9.2360    2.9295   62.9596 H       1  ZINC000477669194    0.1400
     37 H37        -7.0186    1.3304   64.6189 H       1  ZINC000477669194    0.4300
     38 H38       -10.7882    1.5969   63.8773 H       1  ZINC000477669194    0.1300
     39 H39       -11.2779    1.4488   65.5822 H       1  ZINC000477669194    0.1400
     40 H40       -10.1066    2.6986   65.0980 H       1  ZINC000477669194    0.1300
     41 H41        -6.9100   -0.6280   62.4432 H       1  ZINC000477669194    0.1700
     42 H42        -7.2407   -0.4979   60.0131 H       1  ZINC000477669194    0.1500
     43 H43        -7.8318   -2.0173   57.6551 H       1  ZINC000477669194    0.1800
@<TRIPOS>BOND
     1     1     2    1
     2     1    27    1
     3     1    28    1
     4     1    29    1
     5     2    26    1
     6     2     3    2
     7     3     4    1
     8     4     5    1
     9     4    25    2
    10     5    10   ar
    11     5     6   ar
    12     6     7   ar
    13     6    30    1
    14     7     8   ar
    15     7    31    1
    16     8     9   ar
    17     8    32    1
    18     9    10   ar
    19     9    33    1
    20    10    11    1
    21    11    12   am
    22    11    34    1
    23    12    13    2
    24    12    14    1
    25    14    24   ar
    26    14    15   ar
    27    15    16   ar
    28    15    35    1
    29    16    17   ar
    30    16    36    1
    31    17    18    1
    32    17    23   ar
    33    18    19   am
    34    18    37    1
    35    19    20    1
    36    19    21    2
    37    19    22    2
    38    20    38    1
    39    20    39    1
    40    20    40    1
    41    23    24   ar
    42    23    41    1
    43    24    42    1
    44    25    26    1
    45    25    43    1
@<TRIPOS>SUBSTRUCTURE
     1 ZINC000477669194        1 TEMP              0 ****  ****    0 ROOT


##########                                Name:    ZINC000281092425
##########                DOCK_Rotatable_Bonds:                   8
##########                         Heavy_Atoms:                  23
##########                    Molecular_Weight:             332.304
##########                DOCK_Rotatable_Bonds:                   8
##########                       Formal_Charge:         2.98023e-08
##########                     HBond_Acceptors:                   9
##########                        HBond_Donors:                   2
##########                         Heavy_Atoms:                  23
##########                          Grid_Score:          -27.264656
##########                     Grid_vdw_energy:          -25.289085
##########                      Grid_es_energy:           -1.975570
##########           Internal_energy_repulsive:           14.668200

@<TRIPOS>MOLECULE
ZINC000281092425
 41 42 1 0 0
SMALL
USER_CHARGES


@<TRIPOS>ATOM
      1 O1         -7.2783   -5.2578   59.0401 O.2     1  ZINC000281092425   -0.1800
      2 N2         -8.1973   -4.7608   58.4139 N.pl3   1  ZINC000281092425    0.0400
      3 O3         -9.1345   -5.4517   58.0564 O.2     1  ZINC000281092425   -0.1500
      4 C4         -8.1781   -3.3161   58.0928 C.ar    1  ZINC000281092425   -0.1200
      5 C5         -7.1144   -2.5332   58.4989 C.ar    1  ZINC000281092425    0.0200
      6 C6         -7.0927   -1.1843   58.2012 C.ar    1  ZINC000281092425   -0.2200
      7 C7         -8.1411   -0.6118   57.4917 C.ar    1  ZINC000281092425    0.3000
      8 N8         -8.1194    0.7518   57.1902 N.pl3   1  ZINC000281092425   -0.7200
      9 C9         -7.9662    1.7369   58.2637 C.3     1  ZINC000281092425    0.1200
     10 C10        -7.7301    3.1210   57.6558 C.3     1  ZINC000281092425   -0.0900
     11 H11        -8.1101    3.1389   56.6343 H       1  ZINC000281092425    0.0900
     12 C12        -8.4598    4.1757   58.4900 C.3     1  ZINC000281092425    0.0800
     13 O13        -9.2752    4.9791   57.6347 O.3     1  ZINC000281092425   -0.5700
     14 C14        -6.2307    3.4252   57.6473 C.3     1  ZINC000281092425   -0.1100
     15 H15        -5.8128    3.3361   58.6502 H       1  ZINC000281092425    0.0900
     16 C16        -5.4836    2.4954   56.6528 C.3     1  ZINC000281092425   -0.1600
     17 C17        -4.2749    3.3857   56.2690 C.3     1  ZINC000281092425    0.0500
     18 O18        -4.7937    4.7245   56.2267 O.3     1  ZINC000281092425   -0.3900
     19 C19        -5.9578    4.8270   57.0610 C.3     1  ZINC000281092425    0.0700
     20 C20        -9.2105   -1.3971   57.0827 C.ar    1  ZINC000281092425   -0.2800
     21 C21        -9.2259   -2.7507   57.3792 C.ar    1  ZINC000281092425    0.2300
     22 O22       -10.2709   -3.5223   56.9798 O.3     1  ZINC000281092425   -0.2900
     23 C23       -11.5638   -3.1713   57.4769 C.3     1  ZINC000281092425    0.4100
     24 F24       -12.4362   -4.2526   57.3121 F       1  ZINC000281092425   -0.1900
     25 F25       -11.4698   -2.8508   58.8355 F       1  ZINC000281092425   -0.1900
     26 H26        -6.2985   -2.9766   59.0504 H       1  ZINC000281092425    0.1600
     27 H27        -6.2605   -0.5744   58.5202 H       1  ZINC000281092425    0.1500
     28 H28        -8.2056    1.0465   56.2702 H       1  ZINC000281092425    0.4100
     29 H29        -8.8713    1.7563   58.8708 H       1  ZINC000281092425    0.0800
     30 H30        -7.1156    1.4644   58.8883 H       1  ZINC000281092425    0.0800
     31 H31        -9.0876    3.6818   59.2317 H       1  ZINC000281092425    0.0500
     32 H32        -7.7298    4.8082   58.9953 H       1  ZINC000281092425    0.0500
     33 H33        -9.7727    5.6669   58.0979 H       1  ZINC000281092425    0.3800
     34 H34        -5.1562    1.5783   57.1426 H       1  ZINC000281092425    0.0800
     35 H35        -6.1009    2.2746   55.7820 H       1  ZINC000281092425    0.0800
     36 H36        -3.4924    3.3070   57.0237 H       1  ZINC000281092425    0.0600
     37 H37        -3.8887    3.0984   55.2911 H       1  ZINC000281092425    0.0900
     38 H38        -6.8123    5.1487   56.4656 H       1  ZINC000281092425    0.0800
     39 H39        -5.7754    5.5411   57.8641 H       1  ZINC000281092425    0.0700
     40 H40       -10.0268   -0.9547   56.5310 H       1  ZINC000281092425    0.1500
     41 H41       -11.9436   -2.3108   56.9261 H       1  ZINC000281092425    0.1900
@<TRIPOS>BOND
     1     1     2    2
     2     2     3    2
     3     2     4    1
     4     4    21   ar
     5     4     5   ar
     6     5     6   ar
     7     5    26    1
     8     6     7   ar
     9     6    27    1
    10     7     8    1
    11     7    20   ar
    12     8     9    1
    13     8    28    1
    14     9    10    1
    15     9    29    1
    16     9    30    1
    17    10    11    1
    18    10    12    1
    19    10    14    1
    20    12    13    1
    21    12    31    1
    22    12    32    1
    23    13    33    1
    24    14    15    1
    25    14    19    1
    26    14    16    1
    27    16    17    1
    28    16    34    1
    29    16    35    1
    30    17    18    1
    31    17    36    1
    32    17    37    1
    33    18    19    1
    34    19    38    1
    35    19    39    1
    36    20    21   ar
    37    20    40    1
    38    21    22    1
    39    22    23    1
    40    23    24    1
    41    23    25    1
    42    23    41    1
@<TRIPOS>SUBSTRUCTURE
     1 ZINC000281092425        1 TEMP              0 ****  ****    0 ROOT


##########                                Name:    ZINC000274267583
##########                DOCK_Rotatable_Bonds:                   5
##########                         Heavy_Atoms:                  24
##########                    Molecular_Weight:             349.407
##########                DOCK_Rotatable_Bonds:                   5
##########                       Formal_Charge:           0.0300001
##########                     HBond_Acceptors:                   7
##########                        HBond_Donors:                   1
##########                         Heavy_Atoms:                  24
##########                          Grid_Score:          -27.250534
##########                     Grid_vdw_energy:          -25.086170
##########                      Grid_es_energy:           -2.164365
##########           Internal_energy_repulsive:           15.638557

@<TRIPOS>MOLECULE
ZINC000274267583
 43 45 1 0 0
SMALL
USER_CHARGES


@<TRIPOS>ATOM
      1 C1         -6.1754    1.9890   57.2110 C.3     1  ZINC000274267583    0.0200
      2 O2         -7.2506    1.5544   56.3761 O.3     1  ZINC000274267583   -0.3100
      3 C3         -7.9066    0.4253   56.7528 C.ar    1  ZINC000274267583    0.1900
      4 C4         -9.0313    0.0097   56.0550 C.ar    1  ZINC000274267583   -0.2300
      5 C5         -9.6960   -1.1387   56.4397 C.ar    1  ZINC000274267583    0.0300
      6 C6         -9.2416   -1.8732   57.5193 C.ar    1  ZINC000274267583   -0.7200
      7 S7        -10.0921   -3.3369   58.0077 S.o2    1  ZINC000274267583    2.7000
      8 O8        -10.8806   -3.7335   56.8941 O.2     1  ZINC000274267583   -0.9500
      9 O9         -9.1227   -4.1810   58.6136 O.2     1  ZINC000274267583   -0.9500
     10 N10       -11.1543   -2.9106   59.2045 N.am    1  ZINC000274267583   -1.1100
     11 C11       -12.2025   -1.9228   58.9359 C.3     1  ZINC000274267583    0.2100
     12 H12       -11.9737   -1.3938   58.0109 H       1  ZINC000274267583    0.1000
     13 C13       -13.5497   -2.6356   58.7953 C.3     1  ZINC000274267583   -0.1800
     14 C14       -14.6593   -1.5764   58.8108 C.3     1  ZINC000274267583    0.0600
     15 O15       -14.6626   -0.9465   60.0926 O.3     1  ZINC000274267583   -0.3100
     16 C16       -13.4763   -0.4995   60.5836 C.ar    1  ZINC000274267583    0.1100
     17 C17       -13.4956    0.4210   61.6260 C.ar    1  ZINC000274267583   -0.1100
     18 C18       -12.3139    0.8965   62.1567 C.ar    1  ZINC000274267583   -0.1600
     19 C19       -11.1012    0.4547   61.6494 C.ar    1  ZINC000274267583    0.0900
     20 O20        -9.9346    0.9188   62.1716 O.3     1  ZINC000274267583   -0.3200
     21 C21        -8.7284    0.5325   61.5098 C.3     1  ZINC000274267583    0.0300
     22 C22       -11.0806   -0.4608   60.6094 C.ar    1  ZINC000274267583   -0.1000
     23 C23       -12.2665   -0.9371   60.0750 C.ar    1  ZINC000274267583   -0.1400
     24 C24        -8.1207   -1.4612   58.2161 C.ar    1  ZINC000274267583    0.0200
     25 C25        -7.4493   -0.3165   57.8323 C.ar    1  ZINC000274267583   -0.1700
     26 H26        -6.5524    2.1901   58.2138 H       1  ZINC000274267583    0.0600
     27 H27        -5.4143    1.2101   57.2583 H       1  ZINC000274267583    0.0600
     28 H28        -5.7392    2.8984   56.7977 H       1  ZINC000274267583    0.1100
     29 H29        -9.3870    0.5834   55.2121 H       1  ZINC000274267583    0.1400
     30 H30       -10.5716   -1.4627   55.8967 H       1  ZINC000274267583    0.1400
     31 H31       -11.0824   -3.3146   60.0835 H       1  ZINC000274267583    0.4200
     32 H32       -13.5786   -3.1841   57.8538 H       1  ZINC000274267583    0.1000
     33 H33       -13.6889   -3.3256   59.6275 H       1  ZINC000274267583    0.0900
     34 H34       -14.4680   -0.8330   58.0369 H       1  ZINC000274267583    0.0700
     35 H35       -15.6236   -2.0523   58.6331 H       1  ZINC000274267583    0.1200
     36 H36       -14.4397    0.7655   62.0216 H       1  ZINC000274267583    0.1400
     37 H37       -12.3334    1.6118   62.9656 H       1  ZINC000274267583    0.1400
     38 H38        -8.6413   -0.5540   61.5182 H       1  ZINC000274267583    0.0600
     39 H39        -8.7497    0.8874   60.4794 H       1  ZINC000274267583    0.0600
     40 H40        -7.8742    0.9695   62.0270 H       1  ZINC000274267583    0.1000
     41 H41       -10.1361   -0.8045   60.2142 H       1  ZINC000274267583    0.1300
     42 H42        -7.7674   -2.0368   59.0590 H       1  ZINC000274267583    0.1500
     43 H43        -6.5738    0.0049   58.3768 H       1  ZINC000274267583    0.1400
@<TRIPOS>BOND
     1     1     2    1
     2     1    26    1
     3     1    27    1
     4     1    28    1
     5     2     3    1
     6     3    25   ar
     7     3     4   ar
     8     4     5   ar
     9     4    29    1
    10     5     6   ar
    11     5    30    1
    12     6     7    1
    13     6    24   ar
    14     7     8    2
    15     7     9    2
    16     7    10   am
    17    10    11    1
    18    10    31    1
    19    11    12    1
    20    11    23    1
    21    11    13    1
    22    13    14    1
    23    13    32    1
    24    13    33    1
    25    14    15    1
    26    14    34    1
    27    14    35    1
    28    15    16    1
    29    16    23   ar
    30    16    17   ar
    31    17    18   ar
    32    17    36    1
    33    18    19   ar
    34    18    37    1
    35    19    20    1
    36    19    22   ar
    37    20    21    1
    38    21    38    1
    39    21    39    1
    40    21    40    1
    41    22    23   ar
    42    22    41    1
    43    24    25   ar
    44    24    42    1
    45    25    43    1
@<TRIPOS>SUBSTRUCTURE
     1 ZINC000274267583        1 TEMP              0 ****  ****    0 ROOT


##########                                Name:    ZINC000549381790
##########                DOCK_Rotatable_Bonds:                   7
##########                         Heavy_Atoms:                  23
##########                    Molecular_Weight:             337.846
##########                DOCK_Rotatable_Bonds:                   7
##########                       Formal_Charge:           0.0300006
##########                     HBond_Acceptors:                   5
##########                        HBond_Donors:                   0
##########                         Heavy_Atoms:                  23
##########                          Grid_Score:          -27.222698
##########                     Grid_vdw_energy:          -26.948008
##########                      Grid_es_energy:           -0.274691
##########           Internal_energy_repulsive:           85.059128

@<TRIPOS>MOLECULE
ZINC000549381790
 47 49 1 0 0
SMALL
USER_CHARGES


@<TRIPOS>ATOM
      1 C1         -3.9333    2.6106   53.3332 C.3     1  ZINC000549381790   -0.1400
      2 C2         -4.8293    2.9433   52.1386 C.3     1  ZINC000549381790    0.1500
      3 H3         -4.7906    4.0144   51.9399 H       1  ZINC000549381790    0.0700
      4 C4         -4.3468    2.1744   50.9046 C.3     1  ZINC000549381790   -0.1300
      5 C5         -5.3265    2.4020   49.7512 C.3     1  ZINC000549381790   -0.1200
      6 C6         -6.7081    1.8716   50.1410 C.3     1  ZINC000549381790   -0.1400
      7 C7         -7.2175    2.6371   51.3663 C.3     1  ZINC000549381790    0.1000
      8 N8         -6.2127    2.5472   52.4351 N.am    1  ZINC000549381790   -0.6100
      9 C9         -6.5529    2.1049   53.6619 C.2     1  ZINC000549381790    0.5200
     10 O10        -5.7144    2.0351   54.5354 O.2     1  ZINC000549381790   -0.5000
     11 C11        -7.9751    1.6969   53.9482 C.3     1  ZINC000549381790    0.0400
     12 O12        -8.0778    1.2441   55.2998 O.3     1  ZINC000549381790   -0.2800
     13 C13        -9.0714    0.3591   55.5805 C.ar    1  ZINC000549381790    0.1100
     14 C14       -10.3681    0.6170   55.1621 C.ar    1  ZINC000549381790   -0.1700
     15 C15       -11.3780   -0.2822   55.4467 C.ar    1  ZINC000549381790   -0.1600
     16 C16       -11.0954   -1.4424   56.1511 C.ar    1  ZINC000549381790    0.1100
     17 O17       -12.0895   -2.3273   56.4311 O.3     1  ZINC000549381790   -0.3000
     18 C18       -13.1366   -1.8754   57.2922 C.3     1  ZINC000549381790    0.0900
     19 C19       -14.1125   -3.0242   57.5546 C.3     1  ZINC000549381790   -0.1600
     20 C20       -14.2647   -3.5059   58.9988 C.3     1  ZINC000549381790   -0.1700
     21 C21       -15.3871   -2.7034   58.3378 C.3     1  ZINC000549381790   -0.1700
     22 C22        -9.7974   -1.7009   56.5702 C.ar    1  ZINC000549381790   -0.0300
     23 Cl23       -9.4429   -3.1538   57.4518 Cl      1  ZINC000549381790   -0.0400
     24 C24        -8.7866   -0.8042   56.2804 C.ar    1  ZINC000549381790   -0.1000
     25 H25        -4.0503    1.5585   53.5933 H       1  ZINC000549381790    0.0600
     26 H26        -2.8932    2.8069   53.0730 H       1  ZINC000549381790    0.0500
     27 H27        -4.2178    3.2291   54.1843 H       1  ZINC000549381790    0.0800
     28 H28        -3.3576    2.5312   50.6176 H       1  ZINC000549381790    0.0800
     29 H29        -4.2974    1.1103   51.1354 H       1  ZINC000549381790    0.0700
     30 H30        -5.3941    3.4688   49.5373 H       1  ZINC000549381790    0.0700
     31 H31        -4.9724    1.8759   48.8647 H       1  ZINC000549381790    0.0700
     32 H32        -7.3997    2.0129   49.3105 H       1  ZINC000549381790    0.0800
     33 H33        -6.6365    0.8104   50.3791 H       1  ZINC000549381790    0.0700
     34 H34        -7.3759    3.6831   51.1038 H       1  ZINC000549381790    0.0800
     35 H35        -8.1548    2.1980   51.7079 H       1  ZINC000549381790    0.0800
     36 H36        -8.6350    2.5517   53.8003 H       1  ZINC000549381790    0.0900
     37 H37        -8.2655    0.8926   53.2724 H       1  ZINC000549381790    0.0900
     38 H38       -10.5888    1.5209   54.6139 H       1  ZINC000549381790    0.1400
     39 H39       -12.3878   -0.0809   55.1206 H       1  ZINC000549381790    0.1400
     40 H40       -12.7102   -1.5381   58.2369 H       1  ZINC000549381790    0.0700
     41 H41       -13.6667   -1.0498   56.8173 H       1  ZINC000549381790    0.0700
     42 H42       -14.1820   -3.7717   56.7644 H       1  ZINC000549381790    0.1200
     43 H43       -14.4342   -4.5707   59.1589 H       1  ZINC000549381790    0.1000
     44 H44       -13.6695   -3.0044   59.7619 H       1  ZINC000549381790    0.1000
     45 H45       -15.5305   -1.6740   58.6660 H       1  ZINC000549381790    0.1000
     46 H46       -16.2951   -3.2402   58.0630 H       1  ZINC000549381790    0.1000
     47 H47        -7.7767   -1.0049   56.6062 H       1  ZINC000549381790    0.1500
@<TRIPOS>BOND
     1     1     2    1
     2     1    25    1
     3     1    26    1
     4     1    27    1
     5     2     3    1
     6     2     8    1
     7     2     4    1
     8     4     5    1
     9     4    28    1
    10     4    29    1
    11     5     6    1
    12     5    30    1
    13     5    31    1
    14     6     7    1
    15     6    32    1
    16     6    33    1
    17     7     8    1
    18     7    34    1
    19     7    35    1
    20     8     9   am
    21     9    10    2
    22     9    11    1
    23    11    12    1
    24    11    36    1
    25    11    37    1
    26    12    13    1
    27    13    24   ar
    28    13    14   ar
    29    14    15   ar
    30    14    38    1
    31    15    16   ar
    32    15    39    1
    33    16    17    1
    34    16    22   ar
    35    17    18    1
    36    18    19    1
    37    18    40    1
    38    18    41    1
    39    19    21    1
    40    19    20    1
    41    19    42    1
    42    20    21    1
    43    20    43    1
    44    20    44    1
    45    21    45    1
    46    21    46    1
    47    22    23    1
    48    22    24   ar
    49    24    47    1
@<TRIPOS>SUBSTRUCTURE
     1 ZINC000549381790        1 TEMP              0 ****  ****    0 ROOT


##########                                Name:    ZINC000599228306
##########                DOCK_Rotatable_Bonds:                   8
##########                         Heavy_Atoms:                  25
##########                    Molecular_Weight:             379.382
##########                DOCK_Rotatable_Bonds:                   8
##########                       Formal_Charge:        -4.09782e-08
##########                     HBond_Acceptors:                  10
##########                        HBond_Donors:                   1
##########                         Heavy_Atoms:                  25
##########                          Grid_Score:          -27.104372
##########                     Grid_vdw_energy:          -27.399107
##########                      Grid_es_energy:            0.294735
##########           Internal_energy_repulsive:           18.491632

@<TRIPOS>MOLECULE
ZINC000599228306
 44 44 1 0 0
SMALL
USER_CHARGES


@<TRIPOS>ATOM
      1 C1         -6.9726    2.8511   57.9097 C.3     1  ZINC000599228306    0.0400
      2 O2         -6.5837    1.4866   58.2183 O.3     1  ZINC000599228306   -0.3500
      3 C3         -7.4593    0.7460   58.9254 C.2     1  ZINC000599228306    0.5100
      4 O4         -7.8888    1.1594   59.9840 O.2     1  ZINC000599228306   -0.4800
      5 C5         -7.8967   -0.5673   58.4140 C.ar    1  ZINC000599228306   -0.1500
      6 C6         -7.1781   -1.7207   58.7365 C.ar    1  ZINC000599228306   -0.0100
      7 C7         -7.5931   -2.9463   58.2544 C.ar    1  ZINC000599228306    0.0700
      8 F8         -6.8990   -4.0629   58.5656 F       1  ZINC000599228306   -0.1200
      9 C9         -8.7204   -3.0342   57.4524 C.ar    1  ZINC000599228306    0.0100
     10 C10        -9.4370   -1.8971   57.1287 C.ar    1  ZINC000599228306   -0.7100
     11 S11       -10.8685   -2.0211   56.1089 S.o2    1  ZINC000599228306    2.7000
     12 O12       -10.7121   -1.0549   55.0788 O.2     1  ZINC000599228306   -0.9200
     13 O13       -11.0605   -3.4057   55.8533 O.2     1  ZINC000599228306   -0.9300
     14 N14       -12.1623   -1.5298   57.0185 N.am    1  ZINC000599228306   -1.1000
     15 C15       -12.5017   -2.2407   58.2536 C.3     1  ZINC000599228306    0.1600
     16 H16       -11.7150   -2.9580   58.4877 H       1  ZINC000599228306    0.1300
     17 C17       -12.6339   -1.2365   59.4002 C.3     1  ZINC000599228306   -0.1700
     18 C18       -13.8079   -2.9696   58.0708 C.2     1  ZINC000599228306    0.4700
     19 O19       -14.2671   -3.6230   58.9776 O.2     1  ZINC000599228306   -0.4900
     20 O20       -14.4612   -2.8932   56.9008 O.3     1  ZINC000599228306   -0.3400
     21 C21       -15.5731   -1.9624   56.8262 C.3     1  ZINC000599228306    0.1200
     22 C22       -16.6142   -2.4898   55.8369 C.3     1  ZINC000599228306   -0.1900
     23 C23       -16.2111   -1.8179   58.2093 C.3     1  ZINC000599228306   -0.1400
     24 C24       -15.0656   -0.5985   56.3537 C.3     1  ZINC000599228306   -0.1800
     25 C25        -9.0364   -0.6639   57.6084 C.ar    1  ZINC000599228306    0.2500
     26 F26        -9.7380    0.4464   57.2917 F       1  ZINC000599228306   -0.0900
     27 H27        -6.1801    3.3344   57.3386 H       1  ZINC000599228306    0.1100
     28 H28        -7.8908    2.8432   57.3223 H       1  ZINC000599228306    0.0700
     29 H29        -7.1391    3.4000   58.8367 H       1  ZINC000599228306    0.0700
     30 H30        -6.2996   -1.6541   59.3613 H       1  ZINC000599228306    0.1700
     31 H31        -9.0402   -3.9954   57.0783 H       1  ZINC000599228306    0.1800
     32 H32       -12.6953   -0.7711   56.7334 H       1  ZINC000599228306    0.4300
     33 H33       -12.8865   -1.7656   60.3192 H       1  ZINC000599228306    0.0900
     34 H34       -11.6891   -0.7093   59.5324 H       1  ZINC000599228306    0.0700
     35 H35       -13.4206   -0.5192   59.1660 H       1  ZINC000599228306    0.0800
     36 H36       -16.9758   -3.4615   56.1734 H       1  ZINC000599228306    0.0600
     37 H37       -17.4489   -1.7910   55.7808 H       1  ZINC000599228306    0.0700
     38 H38       -16.1597   -2.5927   54.8514 H       1  ZINC000599228306    0.0800
     39 H39       -15.4694   -1.4422   58.9141 H       1  ZINC000599228306    0.0700
     40 H40       -17.0458   -1.1192   58.1532 H       1  ZINC000599228306    0.0800
     41 H41       -16.5727   -2.7896   58.5459 H       1  ZINC000599228306    0.0700
     42 H42       -14.6112   -0.7014   55.3683 H       1  ZINC000599228306    0.0800
     43 H43       -15.9003    0.1003   56.2976 H       1  ZINC000599228306    0.0700
     44 H44       -14.3239   -0.2227   57.0585 H       1  ZINC000599228306    0.0600
@<TRIPOS>BOND
     1     1     2    1
     2     1    27    1
     3     1    28    1
     4     1    29    1
     5     2     3    1
     6     3     4    2
     7     3     5    1
     8     5    25   ar
     9     5     6   ar
    10     6     7   ar
    11     6    30    1
    12     7     8    1
    13     7     9   ar
    14     9    10   ar
    15     9    31    1
    16    10    11    1
    17    10    25   ar
    18    11    12    2
    19    11    13    2
    20    11    14   am
    21    14    15    1
    22    14    32    1
    23    15    16    1
    24    15    17    1
    25    15    18    1
    26    17    33    1
    27    17    34    1
    28    17    35    1
    29    18    19    2
    30    18    20    1
    31    20    21    1
    32    21    22    1
    33    21    23    1
    34    21    24    1
    35    22    36    1
    36    22    37    1
    37    22    38    1
    38    23    39    1
    39    23    40    1
    40    23    41    1
    41    24    42    1
    42    24    43    1
    43    24    44    1
    44    25    26    1
@<TRIPOS>SUBSTRUCTURE
     1 ZINC000599228306        1 TEMP              0 ****  ****    0 ROOT


##########                                Name:    ZINC000011498449
##########                DOCK_Rotatable_Bonds:                   5
##########                         Heavy_Atoms:                  21
##########                    Molecular_Weight:             331.198
##########                DOCK_Rotatable_Bonds:                   5
##########                       Formal_Charge:         1.30385e-07
##########                     HBond_Acceptors:                   7
##########                        HBond_Donors:                   1
##########                         Heavy_Atoms:                  21
##########                          Grid_Score:          -27.080225
##########                     Grid_vdw_energy:          -27.439907
##########                      Grid_es_energy:            0.359682
##########           Internal_energy_repulsive:           10.759327

@<TRIPOS>MOLECULE
ZINC000011498449
 37 38 1 0 0
SMALL
USER_CHARGES


@<TRIPOS>ATOM
      1 C1        -10.3885    0.1165   52.3184 C.3     1  ZINC000011498449   -0.1500
      2 C2         -8.9028    0.4334   52.5015 C.3     1  ZINC000011498449    0.0700
      3 H3         -8.3946   -0.4342   52.9222 H       1  ZINC000011498449    0.0600
      4 C4         -8.7473    1.6277   53.4500 C.3     1  ZINC000011498449    0.0800
      5 N5         -7.3316    2.0294   53.4621 N.am    1  ZINC000011498449   -0.6100
      6 C6         -6.6677    2.1959   54.6229 C.2     1  ZINC000011498449    0.5100
      7 O7         -5.5015    2.5288   54.6121 O.2     1  ZINC000011498449   -0.5300
      8 C8         -7.3743    1.9685   55.9344 C.3     1  ZINC000011498449    0.1000
      9 N9         -7.5349    0.5299   56.1596 N.am    1  ZINC000011498449   -0.7200
     10 C10        -7.8180    0.0684   57.3939 C.2     1  ZINC000011498449    0.5600
     11 O11        -7.9415    0.8461   58.3201 O.2     1  ZINC000011498449   -0.5100
     12 C12        -7.9782   -1.3823   57.6213 C.ar    1  ZINC000011498449   -0.1300
     13 C13        -6.9707   -2.1072   58.2609 C.ar    1  ZINC000011498449   -0.0600
     14 C14        -7.1262   -3.4610   58.4707 C.ar    1  ZINC000011498449   -0.1100
     15 C15        -8.2789   -4.1031   58.0487 C.ar    1  ZINC000011498449    0.0000
     16 Cl16       -8.4663   -5.8078   58.3176 Cl      1  ZINC000011498449   -0.0400
     17 C17        -9.2824   -3.3910   57.4138 C.ar    1  ZINC000011498449   -0.1100
     18 C18        -9.1415   -2.0340   57.2023 C.ar    1  ZINC000011498449    0.0300
     19 Cl19      -10.4002   -1.1421   56.4062 Cl      1  ZINC000011498449   -0.0100
     20 C20        -6.6623    2.2433   52.1691 C.3     1  ZINC000011498449    0.0700
     21 C21        -6.9195    1.0191   51.2831 C.3     1  ZINC000011498449    0.0500
     22 O22        -8.3242    0.7583   51.2352 O.3     1  ZINC000011498449   -0.3700
     23 H23       -10.4984   -0.7316   51.6425 H       1  ZINC000011498449    0.0700
     24 H24       -10.8292   -0.1293   53.2845 H       1  ZINC000011498449    0.0800
     25 H25       -10.8960    0.9845   51.8977 H       1  ZINC000011498449    0.0700
     26 H26        -9.3613    2.4572   53.0995 H       1  ZINC000011498449    0.0800
     27 H27        -9.0561    1.3408   54.4552 H       1  ZINC000011498449    0.1000
     28 H28        -6.7852    2.3994   56.7441 H       1  ZINC000011498449    0.1000
     29 H29        -8.3549    2.4435   55.9060 H       1  ZINC000011498449    0.1000
     30 H30        -7.4375   -0.0906   55.4204 H       1  ZINC000011498449    0.4100
     31 H31        -6.0712   -1.6085   58.5902 H       1  ZINC000011498449    0.1500
     32 H32        -6.3472   -4.0223   58.9650 H       1  ZINC000011498449    0.1500
     33 H33       -10.1787   -3.8973   57.0871 H       1  ZINC000011498449    0.1500
     34 H34        -7.0664    3.1349   51.6896 H       1  ZINC000011498449    0.0900
     35 H35        -5.5905    2.3642   52.3261 H       1  ZINC000011498449    0.1000
     36 H36        -6.5511    1.2146   50.2760 H       1  ZINC000011498449    0.1100
     37 H37        -6.4033    0.1539   51.6989 H       1  ZINC000011498449    0.0600
@<TRIPOS>BOND
     1     1     2    1
     2     1    23    1
     3     1    24    1
     4     1    25    1
     5     2     3    1
     6     2    22    1
     7     2     4    1
     8     4     5    1
     9     4    26    1
    10     4    27    1
    11     5     6   am
    12     5    20    1
    13     6     7    2
    14     6     8    1
    15     8     9    1
    16     8    28    1
    17     8    29    1
    18     9    10   am
    19     9    30    1
    20    10    11    2
    21    10    12    1
    22    12    18   ar
    23    12    13   ar
    24    13    14   ar
    25    13    31    1
    26    14    15   ar
    27    14    32    1
    28    15    16    1
    29    15    17   ar
    30    17    18   ar
    31    17    33    1
    32    18    19    1
    33    20    21    1
    34    20    34    1
    35    20    35    1
    36    21    22    1
    37    21    36    1
    38    21    37    1
@<TRIPOS>SUBSTRUCTURE
     1 ZINC000011498449        1 TEMP              0 ****  ****    0 ROOT


##########                                Name:    ZINC000768148687
##########                DOCK_Rotatable_Bonds:                   8
##########                         Heavy_Atoms:                  25
##########                    Molecular_Weight:             371.307
##########                DOCK_Rotatable_Bonds:                   8
##########                       Formal_Charge:         2.98023e-08
##########                     HBond_Acceptors:                  11
##########                        HBond_Donors:                   0
##########                         Heavy_Atoms:                  25
##########                          Grid_Score:          -27.048128
##########                     Grid_vdw_energy:          -26.922798
##########                      Grid_es_energy:           -0.125331
##########           Internal_energy_repulsive:            8.824440

@<TRIPOS>MOLECULE
ZINC000768148687
 43 44 1 0 0
SMALL
USER_CHARGES


@<TRIPOS>ATOM
      1 C1         -3.8897    2.6617   49.7634 C.3     1  ZINC000768148687   -0.1800
      2 C2         -3.8304    1.4573   50.7050 C.3     1  ZINC000768148687    0.1100
      3 N3         -4.5905    1.7513   51.9225 N.pl3   1  ZINC000768148687   -0.3100
      4 N4         -4.0752    2.3287   53.0883 N.2     1  ZINC000768148687   -0.2000
      5 C5         -5.0351    2.4420   53.9640 C.2     1  ZINC000768148687    0.0200
      6 C6         -4.9048    3.0144   55.3520 C.3     1  ZINC000768148687    0.5500
      7 F7         -5.4259    2.1076   56.2812 F       1  ZINC000768148687   -0.1600
      8 F8         -3.5549    3.2481   55.6352 F       1  ZINC000768148687   -0.1600
      9 F9         -5.6126    4.2186   55.4282 F       1  ZINC000768148687   -0.1500
     10 C10        -6.2191    1.9337   53.3830 C.2     1  ZINC000768148687   -0.1800
     11 C11        -7.5460    1.8659   54.0186 C.2     1  ZINC000768148687    0.5300
     12 O12        -8.3232    2.7930   53.9030 O.2     1  ZINC000768148687   -0.4700
     13 O13        -7.8983    0.7759   54.7284 O.3     1  ZINC000768148687   -0.3400
     14 C14        -9.2540    0.7367   55.2467 C.3     1  ZINC000768148687    0.0200
     15 C15        -9.4865   -0.5934   55.9663 C.3     1  ZINC000768148687    0.0600
     16 N16        -8.3842   -0.8415   56.9051 N.3     1  ZINC000768148687   -0.5300
     17 C17        -8.4860   -2.1847   57.4940 C.3     1  ZINC000768148687    0.0100
     18 C18        -7.2886   -2.4231   58.4178 C.3     1  ZINC000768148687    0.0600
     19 O19        -7.2493   -1.3971   59.4133 O.3     1  ZINC000768148687   -0.3800
     20 C20        -7.1496   -0.0760   58.8748 C.3     1  ZINC000768148687    0.0600
     21 C21        -8.3456    0.1863   57.9557 C.3     1  ZINC000768148687    0.0100
     22 C22        -5.8995    1.5177   52.1052 C.2     1  ZINC000768148687    0.0600
     23 C23        -6.8445    0.9047   51.1041 C.3     1  ZINC000768148687    0.3400
     24 F24        -7.4396   -0.2327   51.6602 F       1  ZINC000768148687   -0.1700
     25 F25        -7.8359    1.8332   50.7694 F       1  ZINC000768148687   -0.1800
     26 H26        -3.3243    2.4428   48.8576 H       1  ZINC000768148687    0.0900
     27 H27        -4.9278    2.8683   49.5026 H       1  ZINC000768148687    0.0700
     28 H28        -3.4595    3.5319   50.2590 H       1  ZINC000768148687    0.0700
     29 H29        -4.2607    0.5870   50.2095 H       1  ZINC000768148687    0.1100
     30 H30        -2.7924    1.2507   50.9658 H       1  ZINC000768148687    0.1200
     31 H31        -9.3991    1.5590   55.9473 H       1  ZINC000768148687    0.0800
     32 H32        -9.9610    0.8323   54.4226 H       1  ZINC000768148687    0.0800
     33 H33       -10.4277   -0.5503   56.5144 H       1  ZINC000768148687    0.1100
     34 H34        -9.5289   -1.3999   55.2344 H       1  ZINC000768148687    0.0900
     35 H35        -9.4094   -2.2615   58.0679 H       1  ZINC000768148687    0.0500
     36 H36        -8.4872   -2.9311   56.6997 H       1  ZINC000768148687    0.0900
     37 H37        -7.3894   -3.3951   58.9006 H       1  ZINC000768148687    0.1000
     38 H38        -6.3683   -2.3995   57.8342 H       1  ZINC000768148687    0.0600
     39 H39        -7.1499    0.6496   59.6882 H       1  ZINC000768148687    0.1000
     40 H40        -6.2253    0.0159   58.3045 H       1  ZINC000768148687    0.0600
     41 H41        -8.2443    1.1705   57.4985 H       1  ZINC000768148687    0.0800
     42 H42        -9.2668    0.1474   58.5370 H       1  ZINC000768148687    0.0700
     43 H43        -6.2920    0.6241   50.2073 H       1  ZINC000768148687    0.1500
@<TRIPOS>BOND
     1     1     2    1
     2     1    26    1
     3     1    27    1
     4     1    28    1
     5     2     3    1
     6     2    29    1
     7     2    30    1
     8     3    22    1
     9     3     4    1
    10     4     5    2
    11     5     6    1
    12     5    10    1
    13     6     7    1
    14     6     8    1
    15     6     9    1
    16    10    11    1
    17    10    22    2
    18    11    12    2
    19    11    13    1
    20    13    14    1
    21    14    15    1
    22    14    31    1
    23    14    32    1
    24    15    16    1
    25    15    33    1
    26    15    34    1
    27    16    21    1
    28    16    17    1
    29    17    18    1
    30    17    35    1
    31    17    36    1
    32    18    19    1
    33    18    37    1
    34    18    38    1
    35    19    20    1
    36    20    21    1
    37    20    39    1
    38    20    40    1
    39    21    41    1
    40    21    42    1
    41    22    23    1
    42    23    24    1
    43    23    25    1
    44    23    43    1
@<TRIPOS>SUBSTRUCTURE
     1 ZINC000768148687        1 TEMP              0 ****  ****    0 ROOT


##########                                Name:    ZINC000790205345
##########                DOCK_Rotatable_Bonds:                   7
##########                         Heavy_Atoms:                  28
##########                    Molecular_Weight:             382.459
##########                DOCK_Rotatable_Bonds:                   7
##########                       Formal_Charge:          -0.0299997
##########                     HBond_Acceptors:                   6
##########                        HBond_Donors:                   0
##########                         Heavy_Atoms:                  28
##########                          Grid_Score:          -27.021639
##########                     Grid_vdw_energy:          -25.967781
##########                      Grid_es_energy:           -1.053858
##########           Internal_energy_repulsive:           25.852421

@<TRIPOS>MOLECULE
ZINC000790205345
 54 56 1 0 0
SMALL
USER_CHARGES


@<TRIPOS>ATOM
      1 C1         -8.6350    0.3485   55.5614 C.3     1  ZINC000790205345   -0.1100
      2 C2         -7.5626    1.2884   55.0741 C.ar    1  ZINC000790205345   -0.1300
      3 C3         -7.5346    1.6748   53.7471 C.ar    1  ZINC000790205345   -0.0800
      4 C4         -6.5528    2.5369   53.2979 C.ar    1  ZINC000790205345   -0.2100
      5 C5         -5.5945    3.0147   54.1797 C.ar    1  ZINC000790205345    0.1300
      6 O6         -4.6280    3.8631   53.7405 O.3     1  ZINC000790205345   -0.2900
      7 C7         -3.4683    3.2744   53.1482 C.3     1  ZINC000790205345    0.0400
      8 C8         -2.8321    4.2601   52.2023 C.2     1  ZINC000790205345    0.5200
      9 O9         -3.4027    5.2954   51.9312 O.2     1  ZINC000790205345   -0.5100
     10 N10        -1.6291    3.9912   51.6575 N.am    1  ZINC000790205345   -0.6100
     11 C11        -1.0100    4.9503   50.7393 C.3     1  ZINC000790205345    0.0700
     12 C12        -0.9406    2.7399   51.9834 C.3     1  ZINC000790205345    0.1800
     13 H13        -1.6660    2.0080   52.3389 H       1  ZINC000790205345    0.1200
     14 C14         0.0992    2.9994   53.0753 C.3     1  ZINC000790205345   -0.1600
     15 C15        -0.2538    2.2088   50.7516 C.ar    1  ZINC000790205345   -0.0700
     16 C16         1.0961    1.9119   50.7875 C.ar    1  ZINC000790205345   -0.1300
     17 C17         1.7302    1.4249   49.6589 C.ar    1  ZINC000790205345   -0.0900
     18 C18         1.0162    1.2332   48.4926 C.ar    1  ZINC000790205345   -0.1500
     19 C19        -0.3399    1.5300   48.4534 C.ar    1  ZINC000790205345    0.1800
     20 N20        -1.0664    1.3365   47.2729 N.am    1  ZINC000790205345   -0.5700
     21 C21        -0.8302    0.2696   46.2884 C.3     1  ZINC000790205345    0.0600
     22 C22        -1.8983    0.5246   45.2075 C.3     1  ZINC000790205345    0.0400
     23 O23        -2.6169    1.6963   45.6912 O.3     1  ZINC000790205345   -0.3200
     24 C24        -2.0943    2.0896   46.8581 C.2     1  ZINC000790205345    0.6400
     25 O25        -2.5085    3.0472   47.4811 O.2     1  ZINC000790205345   -0.5000
     26 C26        -0.9747    2.0140   49.5896 C.ar    1  ZINC000790205345   -0.1400
     27 C27        -5.6248    2.6254   55.5112 C.ar    1  ZINC000790205345   -0.1500
     28 C28        -6.6116    1.7676   55.9564 C.ar    1  ZINC000790205345   -0.0500
     29 C29        -6.6454    1.3446   57.4025 C.3     1  ZINC000790205345   -0.1200
     30 H30        -9.4984    0.9240   55.8952 H       1  ZINC000790205345    0.0700
     31 H31        -8.9326   -0.3153   54.7496 H       1  ZINC000790205345    0.0600
     32 H32        -8.2496   -0.2432   56.3918 H       1  ZINC000790205345    0.0700
     33 H33        -8.2807    1.3023   53.0608 H       1  ZINC000790205345    0.1300
     34 H34        -6.5311    2.8381   52.2610 H       1  ZINC000790205345    0.1300
     35 H35        -2.7561    3.0092   53.9296 H       1  ZINC000790205345    0.1000
     36 H36        -3.7561    2.3779   52.5993 H       1  ZINC000790205345    0.0900
     37 H37        -0.4764    5.7089   51.3118 H       1  ZINC000790205345    0.0600
     38 H38        -0.3100    4.4285   50.0866 H       1  ZINC000790205345    0.0800
     39 H39        -1.7827    5.4270   50.1363 H       1  ZINC000790205345    0.0700
     40 H40         0.8245    3.7312   52.7198 H       1  ZINC000790205345    0.0600
     41 H41        -0.3976    3.3833   53.9663 H       1  ZINC000790205345    0.0700
     42 H42         0.6115    2.0682   53.3178 H       1  ZINC000790205345    0.0800
     43 H43         1.6566    2.0609   51.6985 H       1  ZINC000790205345    0.1300
     44 H44         2.7848    1.1945   49.6899 H       1  ZINC000790205345    0.1300
     45 H45         1.5121    0.8531   47.6116 H       1  ZINC000790205345    0.1300
     46 H46         0.1706    0.3539   45.8650 H       1  ZINC000790205345    0.1000
     47 H47        -0.9730   -0.7103   46.7440 H       1  ZINC000790205345    0.1000
     48 H48        -1.4275    0.7347   44.2471 H       1  ZINC000790205345    0.1100
     49 H49        -2.5708   -0.3292   45.1258 H       1  ZINC000790205345    0.1100
     50 H50        -2.0293    2.2455   49.5624 H       1  ZINC000790205345    0.1600
     51 H51        -4.8797    2.9958   56.1997 H       1  ZINC000790205345    0.1300
     52 H52        -7.2532    2.0474   57.9724 H       1  ZINC000790205345    0.0700
     53 H53        -7.0762    0.3463   57.4791 H       1  ZINC000790205345    0.0700
     54 H54        -5.6312    1.3344   57.8018 H       1  ZINC000790205345    0.0700
@<TRIPOS>BOND
     1     1     2    1
     2     1    30    1
     3     1    31    1
     4     1    32    1
     5     2    28   ar
     6     2     3   ar
     7     3     4   ar
     8     3    33    1
     9     4     5   ar
    10     4    34    1
    11     5     6    1
    12     5    27   ar
    13     6     7    1
    14     7     8    1
    15     7    35    1
    16     7    36    1
    17     8     9    2
    18     8    10   am
    19    10    11    1
    20    10    12    1
    21    11    37    1
    22    11    38    1
    23    11    39    1
    24    12    13    1
    25    12    14    1
    26    12    15    1
    27    14    40    1
    28    14    41    1
    29    14    42    1
    30    15    26   ar
    31    15    16   ar
    32    16    17   ar
    33    16    43    1
    34    17    18   ar
    35    17    44    1
    36    18    19   ar
    37    18    45    1
    38    19    20    1
    39    19    26   ar
    40    20    24   am
    41    20    21    1
    42    21    22    1
    43    21    46    1
    44    21    47    1
    45    22    23    1
    46    22    48    1
    47    22    49    1
    48    23    24    1
    49    24    25    2
    50    26    50    1
    51    27    28   ar
    52    27    51    1
    53    28    29    1
    54    29    52    1
    55    29    53    1
    56    29    54    1
@<TRIPOS>SUBSTRUCTURE
     1 ZINC000790205345        1 TEMP              0 ****  ****    0 ROOT


##########                                Name:    ZINC001231746020
##########                DOCK_Rotatable_Bonds:                   3
##########                         Heavy_Atoms:                  19
##########                    Molecular_Weight:             348.667
##########                DOCK_Rotatable_Bonds:                   3
##########                       Formal_Charge:          -0.0399997
##########                     HBond_Acceptors:                   4
##########                        HBond_Donors:                   2
##########                         Heavy_Atoms:                  19
##########                          Grid_Score:          -26.923618
##########                     Grid_vdw_energy:          -21.868765
##########                      Grid_es_energy:           -5.054854
##########           Internal_energy_repulsive:           10.333078

@<TRIPOS>MOLECULE
ZINC001231746020
 38 39 1 0 0
SMALL
USER_CHARGES


@<TRIPOS>ATOM
      1 C1        -10.8140    3.8962   62.7346 C.3     1  ZINC001231746020   -0.1500
      2 C2        -10.0193    2.8546   61.9443 C.3     1  ZINC001231746020   -0.0900
      3 H3        -10.6092    2.5137   61.0933 H       1  ZINC001231746020    0.0800
      4 C4         -8.7339    3.4660   61.4544 C.3     1  ZINC001231746020   -0.1400
      5 C5         -8.2480    2.8833   60.1151 C.3     1  ZINC001231746020   -0.0100
      6 N6         -8.3758    1.4127   60.0292 N.4     1  ZINC001231746020   -0.3800
      7 H7         -9.3361    1.1777   59.8274 H       1  ZINC001231746020    0.4100
      8 C8         -7.5244    0.9218   58.9375 C.3     1  ZINC001231746020    0.0700
      9 C9         -7.9266   -0.4861   58.5809 C.ar    1  ZINC001231746020   -0.3100
     10 C10        -7.0534   -1.5326   58.8120 C.ar    1  ZINC001231746020   -0.0300
     11 C11        -7.4200   -2.8254   58.4862 C.ar    1  ZINC001231746020   -0.1600
     12 Cl12       -6.3229   -4.1390   58.7768 Cl      1  ZINC001231746020   -0.0800
     13 C13        -8.6657   -3.0717   57.9263 C.ar    1  ZINC001231746020    0.3100
     14 O14        -9.0290   -4.3418   57.6054 O.3     1  ZINC001231746020   -0.6300
     15 C15        -9.5400   -2.0190   57.6950 C.ar    1  ZINC001231746020   -0.2100
     16 Br16      -11.2385   -2.3496   56.9321 Br      1  ZINC001231746020   -0.0600
     17 C17        -9.1706   -0.7295   58.0283 C.ar    1  ZINC001231746020   -0.0200
     18 C18        -7.9839    0.7653   61.2577 C.3     1  ZINC001231746020   -0.0200
     19 C19        -9.2567    0.4997   62.0779 C.3     1  ZINC001231746020   -0.1800
     20 C20        -9.6837    1.6522   62.8617 C.3     1  ZINC001231746020    0.1000
     21 H21       -10.5687    1.3844   63.4389 H       1  ZINC001231746020    0.0700
     22 O22        -8.6350    2.0244   63.7583 O.3     1  ZINC001231746020   -0.5600
     23 H23       -11.0393    4.7464   62.0908 H       1  ZINC001231746020    0.0600
     24 H24       -10.2245    4.2324   63.5875 H       1  ZINC001231746020    0.0700
     25 H25       -11.7443    3.4517   63.0884 H       1  ZINC001231746020    0.0600
     26 H26        -8.8811    4.5393   61.3352 H       1  ZINC001231746020    0.1000
     27 H27        -7.9610    3.3018   62.2052 H       1  ZINC001231746020    0.1000
     28 H28        -8.8285    3.3315   59.3087 H       1  ZINC001231746020    0.1200
     29 H29        -7.2005    3.1510   59.9777 H       1  ZINC001231746020    0.1200
     30 H30        -7.6438    1.5656   58.0659 H       1  ZINC001231746020    0.1200
     31 H31        -6.4822    0.9321   59.2567 H       1  ZINC001231746020    0.1200
     32 H32        -6.0841   -1.3402   59.2478 H       1  ZINC001231746020    0.1100
     33 H33        -9.8527    0.0895   57.8532 H       1  ZINC001231746020    0.1100
     34 H34        -7.4852   -0.1780   61.0347 H       1  ZINC001231746020    0.1400
     35 H35        -7.3115    1.4143   61.8185 H       1  ZINC001231746020    0.1300
     36 H36       -10.0610    0.2219   61.3966 H       1  ZINC001231746020    0.0900
     37 H37        -9.0694   -0.3330   62.7558 H       1  ZINC001231746020    0.1100
     38 H38        -7.8127    2.2788   63.3177 H       1  ZINC001231746020    0.3900
@<TRIPOS>BOND
     1     1     2    1
     2     1    23    1
     3     1    24    1
     4     1    25    1
     5     2     3    1
     6     2    20    1
     7     2     4    1
     8     4     5    1
     9     4    26    1
    10     4    27    1
    11     5     6    1
    12     5    28    1
    13     5    29    1
    14     6     7    1
    15     6     8    1
    16     6    18    1
    17     8     9    1
    18     8    30    1
    19     8    31    1
    20     9    17   ar
    21     9    10   ar
    22    10    11   ar
    23    10    32    1
    24    11    12    1
    25    11    13   ar
    26    13    14    1
    27    13    15   ar
    28    15    16    1
    29    15    17   ar
    30    17    33    1
    31    18    19    1
    32    18    34    1
    33    18    35    1
    34    19    20    1
    35    19    36    1
    36    19    37    1
    37    20    21    1
    38    20    22    1
    39    22    38    1
@<TRIPOS>SUBSTRUCTURE
     1 ZINC001231746020        1 TEMP              0 ****  ****    0 ROOT


##########                                Name:    ZINC000566738344
##########                DOCK_Rotatable_Bonds:                   5
##########                         Heavy_Atoms:                  23
##########                    Molecular_Weight:             352.478
##########                DOCK_Rotatable_Bonds:                   5
##########                       Formal_Charge:           0.0100005
##########                     HBond_Acceptors:                   7
##########                        HBond_Donors:                   0
##########                         Heavy_Atoms:                  23
##########                          Grid_Score:          -26.905636
##########                     Grid_vdw_energy:          -26.874199
##########                      Grid_es_energy:           -0.031438
##########           Internal_energy_repulsive:           22.202726

@<TRIPOS>MOLECULE
ZINC000566738344
 43 44 1 0 0
SMALL
USER_CHARGES


@<TRIPOS>ATOM
      1 C1        -11.1446   -3.1330   57.4839 C.3     1  ZINC000566738344   -0.1300
      2 C2         -9.7567   -2.5846   57.6938 C.ar    1  ZINC000566738344   -0.0100
      3 C3         -9.5157   -1.2397   57.5312 C.ar    1  ZINC000566738344   -0.1000
      4 C4         -8.2332   -0.7323   57.7245 C.ar    1  ZINC000566738344   -0.0500
      5 S5         -7.9287    0.9905   57.5147 S.3     1  ZINC000566738344   -0.0300
      6 C6         -8.7162    1.3531   55.9212 C.3     1  ZINC000566738344   -0.1200
      7 H7         -9.3591    0.5205   55.6358 H       1  ZINC000566738344    0.1200
      8 C8         -9.5555    2.6263   56.0452 C.3     1  ZINC000566738344   -0.1300
      9 C9         -7.6548    1.5515   54.8700 C.2     1  ZINC000566738344    0.5200
     10 O10        -6.4953    1.6902   55.1975 O.2     1  ZINC000566738344   -0.5000
     11 N11        -7.9940    1.5749   53.5659 N.am    1  ZINC000566738344   -0.6000
     12 C12        -9.3948    1.4092   53.1703 C.3     1  ZINC000566738344    0.0600
     13 C13        -6.9620    1.7660   52.5438 C.3     1  ZINC000566738344    0.1500
     14 H14        -6.1712    1.0281   52.6791 H       1  ZINC000566738344    0.1300
     15 C15        -7.5836    1.6074   51.1450 C.3     1  ZINC000566738344   -0.1300
     16 C16        -6.5384    2.1418   50.1321 C.3     1  ZINC000566738344   -0.5900
     17 S17        -5.9267    3.6614   50.9545 S.o2    1  ZINC000566738344    2.4000
     18 O18        -4.5122    3.7247   50.8349 O.2     1  ZINC000566738344   -0.9300
     19 O19        -6.7214    4.7680   50.5503 O.2     1  ZINC000566738344   -0.9300
     20 C20        -6.3722    3.1854   52.6617 C.3     1  ZINC000566738344   -0.6200
     21 C21        -7.1913   -1.5833   58.0834 C.ar    1  ZINC000566738344   -0.1400
     22 C22        -7.4258   -2.9294   58.2476 C.ar    1  ZINC000566738344   -0.0400
     23 C23        -8.7134   -3.4412   58.0595 C.ar    1  ZINC000566738344   -0.0400
     24 C24        -8.9608   -4.8414   58.2296 C.1     1  ZINC000566738344    0.2500
     25 N25        -9.1572   -5.9522   58.3644 N.1     1  ZINC000566738344   -0.4100
     26 H26       -11.6934   -3.1025   58.4252 H       1  ZINC000566738344    0.0800
     27 H27       -11.6651   -2.5295   56.7403 H       1  ZINC000566738344    0.0800
     28 H28       -11.0792   -4.1634   57.1347 H       1  ZINC000566738344    0.0700
     29 H29       -10.3219   -0.5771   57.2531 H       1  ZINC000566738344    0.1400
     30 H30        -8.9010    3.4751   56.2432 H       1  ZINC000566738344    0.0800
     31 H31       -10.0985    2.7955   55.1153 H       1  ZINC000566738344    0.0800
     32 H32       -10.2649    2.5154   56.8652 H       1  ZINC000566738344    0.0900
     33 H33        -9.8777    2.3855   53.1256 H       1  ZINC000566738344    0.0700
     34 H34        -9.4419    0.9355   52.1898 H       1  ZINC000566738344    0.0800
     35 H35        -9.9072    0.7835   53.9011 H       1  ZINC000566738344    0.0800
     36 H36        -7.7924    0.5562   50.9463 H       1  ZINC000566738344    0.1100
     37 H37        -8.5020    2.1904   51.0764 H       1  ZINC000566738344    0.0900
     38 H38        -5.7299    1.4238   49.9953 H       1  ZINC000566738344    0.1400
     39 H39        -7.0103    2.3809   49.1790 H       1  ZINC000566738344    0.1400
     40 H40        -7.1154    3.8734   53.0647 H       1  ZINC000566738344    0.1400
     41 H41        -5.4849    3.1721   53.2946 H       1  ZINC000566738344    0.1500
     42 H42        -6.1979   -1.1866   58.2329 H       1  ZINC000566738344    0.1200
     43 H43        -6.6172   -3.5890   58.5257 H       1  ZINC000566738344    0.1400
@<TRIPOS>BOND
     1     1     2    1
     2     1    26    1
     3     1    27    1
     4     1    28    1
     5     2    23   ar
     6     2     3   ar
     7     3     4   ar
     8     3    29    1
     9     4     5    1
    10     4    21   ar
    11     5     6    1
    12     6     7    1
    13     6     8    1
    14     6     9    1
    15     8    30    1
    16     8    31    1
    17     8    32    1
    18     9    10    2
    19     9    11   am
    20    11    12    1
    21    11    13    1
    22    12    33    1
    23    12    34    1
    24    12    35    1
    25    13    14    1
    26    13    20    1
    27    13    15    1
    28    15    16    1
    29    15    36    1
    30    15    37    1
    31    16    17    1
    32    16    38    1
    33    16    39    1
    34    17    18    2
    35    17    19    2
    36    17    20    1
    37    20    40    1
    38    20    41    1
    39    21    22   ar
    40    21    42    1
    41    22    23   ar
    42    22    43    1
    43    23    24    1
    44    24    25    3
@<TRIPOS>SUBSTRUCTURE
     1 ZINC000566738344        1 TEMP              0 ****  ****    0 ROOT


##########                                Name:    ZINC000535362552
##########                DOCK_Rotatable_Bonds:                   5
##########                         Heavy_Atoms:                  26
##########                    Molecular_Weight:             416.228
##########                DOCK_Rotatable_Bonds:                   5
##########                       Formal_Charge:         -0.00999981
##########                     HBond_Acceptors:                   6
##########                        HBond_Donors:                   1
##########                         Heavy_Atoms:                  26
##########                          Grid_Score:          -26.888536
##########                     Grid_vdw_energy:          -26.503960
##########                      Grid_es_energy:           -0.384576
##########           Internal_energy_repulsive:            6.543654

@<TRIPOS>MOLECULE
ZINC000535362552
 40 43 1 0 0
SMALL
USER_CHARGES


@<TRIPOS>ATOM
      1 C1         -0.3792    1.4639   48.1985 C.3     1  ZINC000535362552    0.0300
      2 O2         -1.7173    1.4709   48.7620 O.3     1  ZINC000535362552   -0.3400
      3 C3         -2.3887    2.6401   48.7308 C.2     1  ZINC000535362552    0.5500
      4 O4         -1.8891    3.6140   48.2014 O.2     1  ZINC000535362552   -0.4800
      5 C5         -3.7226    2.7370   49.3361 C.2     1  ZINC000535362552   -0.0100
      6 C6         -4.4293    1.6925   49.8427 C.2     1  ZINC000535362552   -0.0900
      7 C7         -5.6866    2.2546   50.3344 C.ar    1  ZINC000535362552   -0.1300
      8 C8         -6.8164    1.7146   50.9529 C.ar    1  ZINC000535362552   -0.0600
      9 C9         -7.8648    2.5451   51.3018 C.ar    1  ZINC000535362552    0.1200
     10 N10        -9.0019    2.0120   51.9232 N.am    1  ZINC000535362552   -0.6700
     11 C11        -8.9101    1.4893   53.1621 C.2     1  ZINC000535362552    0.5200
     12 O12        -7.8433    1.4804   53.7391 O.2     1  ZINC000535362552   -0.5000
     13 C13       -10.1330    0.9160   53.8303 C.3     1  ZINC000535362552   -0.1000
     14 H14       -10.8321    1.7065   54.1035 H       1  ZINC000535362552    0.1300
     15 C15       -10.8155   -0.1368   52.9251 C.3     1  ZINC000535362552    0.0600
     16 O16       -11.2756   -1.1184   53.8694 O.3     1  ZINC000535362552   -0.2900
     17 C17       -10.4675   -1.1001   54.9650 C.ar    1  ZINC000535362552    0.1300
     18 C18       -10.2836   -2.0619   55.9549 C.ar    1  ZINC000535362552   -0.1300
     19 C19        -9.4083   -1.8296   56.9958 C.ar    1  ZINC000535362552   -0.0500
     20 C20        -8.7063   -0.6398   57.0661 C.ar    1  ZINC000535362552   -0.1200
     21 Br21       -7.5123   -0.3254   58.4984 Br      1  ZINC000535362552   -0.0400
     22 C22        -8.8809    0.3200   56.0833 C.ar    1  ZINC000535362552   -0.0100
     23 C23        -9.7506    0.0882   55.0420 C.ar    1  ZINC000535362552   -0.1600
     24 C24        -7.7933    3.9119   51.0373 C.ar    1  ZINC000535362552   -0.0900
     25 C25        -6.6834    4.4524   50.4272 C.ar    1  ZINC000535362552   -0.0900
     26 C26        -5.6177    3.6353   50.0687 C.ar    1  ZINC000535362552    0.0700
     27 O27        -4.4297    3.8774   49.4789 O.3     1  ZINC000535362552   -0.1700
     28 H28         0.2461    2.1751   48.7384 H       1  ZINC000535362552    0.0700
     29 H29         0.0472    0.4647   48.2875 H       1  ZINC000535362552    0.1100
     30 H30        -0.4263    1.7466   47.1470 H       1  ZINC000535362552    0.0700
     31 H31        -4.1245    0.6569   49.8749 H       1  ZINC000535362552    0.1800
     32 H32        -6.8706    0.6554   51.1570 H       1  ZINC000535362552    0.1400
     33 H33        -9.8550    2.0192   51.4616 H       1  ZINC000535362552    0.4100
     34 H34       -11.6543    0.3031   52.3858 H       1  ZINC000535362552    0.1200
     35 H35       -10.0966   -0.5746   52.2324 H       1  ZINC000535362552    0.0900
     36 H36       -10.8279   -2.9936   55.9076 H       1  ZINC000535362552    0.1400
     37 H37        -9.2708   -2.5803   57.7600 H       1  ZINC000535362552    0.1400
     38 H38        -8.3350    1.2505   56.1339 H       1  ZINC000535362552    0.1400
     39 H39        -8.6172    4.5534   51.3133 H       1  ZINC000535362552    0.1500
     40 H40        -6.6407    5.5129   50.2272 H       1  ZINC000535362552    0.1500
@<TRIPOS>BOND
     1     1     2    1
     2     1    28    1
     3     1    29    1
     4     1    30    1
     5     2     3    1
     6     3     4    2
     7     3     5    1
     8     5    27    1
     9     5     6    2
    10     6     7    1
    11     6    31    1
    12     7    26   ar
    13     7     8   ar
    14     8     9   ar
    15     8    32    1
    16     9    10    1
    17     9    24   ar
    18    10    11   am
    19    10    33    1
    20    11    12    2
    21    11    13    1
    22    13    14    1
    23    13    23    1
    24    13    15    1
    25    15    16    1
    26    15    34    1
    27    15    35    1
    28    16    17    1
    29    17    23   ar
    30    17    18   ar
    31    18    19   ar
    32    18    36    1
    33    19    20   ar
    34    19    37    1
    35    20    21    1
    36    20    22   ar
    37    22    23   ar
    38    22    38    1
    39    24    25   ar
    40    24    39    1
    41    25    26   ar
    42    25    40    1
    43    26    27    1
@<TRIPOS>SUBSTRUCTURE
     1 ZINC000535362552        1 TEMP              0 ****  ****    0 ROOT


##########                                Name:    ZINC001345966764
##########                DOCK_Rotatable_Bonds:                  10
##########                         Heavy_Atoms:                  22
##########                    Molecular_Weight:             333.258
##########                DOCK_Rotatable_Bonds:                  10
##########                       Formal_Charge:           0.0099997
##########                     HBond_Acceptors:                  11
##########                        HBond_Donors:                   4
##########                         Heavy_Atoms:                  22
##########                          Grid_Score:          -26.873968
##########                     Grid_vdw_energy:          -25.859104
##########                      Grid_es_energy:           -1.014864
##########           Internal_energy_repulsive:            5.501982

@<TRIPOS>MOLECULE
ZINC001345966764
 38 38 1 0 0
SMALL
USER_CHARGES


@<TRIPOS>ATOM
      1 N1        -12.2492    5.3009   49.9513 N.3     1  ZINC001345966764   -0.8400
      2 C2        -11.6278    5.3203   48.6203 C.3     1  ZINC001345966764    0.0200
      3 C3        -10.1090    5.4300   48.7682 C.3     1  ZINC001345966764    0.2800
      4 F4         -9.5208    5.4986   47.5007 F       1  ZINC001345966764   -0.1900
      5 F5         -9.7931    6.5849   49.4920 F       1  ZINC001345966764   -0.1800
      6 C6         -9.5788    4.2018   49.5106 C.3     1  ZINC001345966764    0.0800
      7 N7         -8.1208    4.2904   49.6223 N.am    1  ZINC001345966764   -0.7000
      8 C8         -7.3811    3.1661   49.6968 C.2     1  ZINC001345966764    0.5100
      9 O9         -7.9227    2.0806   49.6701 O.2     1  ZINC001345966764   -0.5100
     10 C10        -5.8938    3.2565   49.8125 C.2     1  ZINC001345966764    0.5100
     11 O11        -5.3591    4.3394   49.9302 O.2     1  ZINC001345966764   -0.5100
     12 N12        -5.1466    2.1352   49.7861 N.am    1  ZINC001345966764   -0.7000
     13 C13        -3.6887    2.2236   49.9013 C.3     1  ZINC001345966764    0.1200
     14 C14        -3.0837    2.4959   48.5227 C.3     1  ZINC001345966764    0.0600
     15 H15        -3.7514    3.1245   47.9335 H       1  ZINC001345966764    0.0900
     16 C16        -1.6999    3.1674   48.6659 C.3     1  ZINC001345966764   -0.1400
     17 C17        -0.8626    2.5491   47.5239 C.3     1  ZINC001345966764   -0.1500
     18 C18        -1.8397    1.5772   46.8260 C.3     1  ZINC001345966764    0.0300
     19 H19        -2.3159    2.0639   45.9750 H       1  ZINC001345966764    0.1200
     20 C20        -1.1026    0.3154   46.3726 C.3     1  ZINC001345966764    0.4600
     21 F21        -1.0003   -0.5760   47.4460 F       1  ZINC001345966764   -0.1700
     22 F22        -1.8122   -0.2898   45.3298 F       1  ZINC001345966764   -0.1700
     23 F23         0.1786    0.6582   45.9274 F       1  ZINC001345966764   -0.1700
     24 O24        -2.8241    1.2536   47.8333 O.3     1  ZINC001345966764   -0.3500
     25 H25       -13.2522    5.2163   49.8810 H       1  ZINC001345966764    0.3500
     26 H26       -11.8630    4.5622   50.5199 H       1  ZINC001345966764    0.3600
     27 H27       -11.8758    4.4008   48.0901 H       1  ZINC001345966764    0.1100
     28 H28       -12.0008    6.1761   48.0576 H       1  ZINC001345966764    0.0700
     29 H29       -10.0178    4.1624   50.5075 H       1  ZINC001345966764    0.1100
     30 H30        -9.8470    3.3004   48.9596 H       1  ZINC001345966764    0.1100
     31 H31        -7.6876    5.1580   49.6425 H       1  ZINC001345966764    0.4200
     32 H32        -5.5739    1.2697   49.6909 H       1  ZINC001345966764    0.4200
     33 H33        -3.4265    3.0352   50.5801 H       1  ZINC001345966764    0.1000
     34 H34        -3.2974    1.2837   50.2906 H       1  ZINC001345966764    0.0900
     35 H35        -1.7838    4.2465   48.5368 H       1  ZINC001345966764    0.0900
     36 H36        -1.2588    2.9308   49.6342 H       1  ZINC001345966764    0.0900
     37 H37        -0.5326    3.3225   46.8303 H       1  ZINC001345966764    0.1000
     38 H38        -0.0076    2.0068   47.9277 H       1  ZINC001345966764    0.0900
@<TRIPOS>BOND
     1     1     2    1
     2     1    25    1
     3     1    26    1
     4     2     3    1
     5     2    27    1
     6     2    28    1
     7     3     4    1
     8     3     5    1
     9     3     6    1
    10     6     7    1
    11     6    29    1
    12     6    30    1
    13     7     8   am
    14     7    31    1
    15     8     9    2
    16     8    10    1
    17    10    11    2
    18    10    12   am
    19    12    13    1
    20    12    32    1
    21    13    14    1
    22    13    33    1
    23    13    34    1
    24    14    15    1
    25    14    24    1
    26    14    16    1
    27    16    17    1
    28    16    35    1
    29    16    36    1
    30    17    18    1
    31    17    37    1
    32    17    38    1
    33    18    19    1
    34    18    20    1
    35    18    24    1
    36    20    21    1
    37    20    22    1
    38    20    23    1
@<TRIPOS>SUBSTRUCTURE
     1 ZINC001345966764        1 TEMP              0 ****  ****    0 ROOT


##########                                Name:    ZINC000375477402
##########                DOCK_Rotatable_Bonds:                   5
##########                         Heavy_Atoms:                  26
##########                    Molecular_Weight:             378.342
##########                DOCK_Rotatable_Bonds:                   5
##########                       Formal_Charge:         -1.2666e-07
##########                     HBond_Acceptors:                   9
##########                        HBond_Donors:                   1
##########                         Heavy_Atoms:                  26
##########                          Grid_Score:          -26.822460
##########                     Grid_vdw_energy:          -25.649193
##########                      Grid_es_energy:           -1.173268
##########           Internal_energy_repulsive:            7.662443

@<TRIPOS>MOLECULE
ZINC000375477402
 45 47 1 0 0
SMALL
USER_CHARGES


@<TRIPOS>ATOM
      1 O1         -8.7716   -0.4855   52.0440 O.2     1  ZINC000375477402   -0.5600
      2 C2         -8.1731    0.4496   52.5398 C.2     1  ZINC000375477402    0.7200
      3 N3         -8.4331    0.8190   53.8096 N.am    1  ZINC000375477402   -0.7300
      4 C4         -9.4410    0.0976   54.5906 C.3     1  ZINC000375477402    0.1800
      5 H5         -9.7736   -0.7785   54.0338 H       1  ZINC000375477402    0.1500
      6 C6         -8.8421   -0.3387   55.9028 C.ar    1  ZINC000375477402   -0.1300
      7 C7         -7.9818    0.5021   56.5833 C.ar    1  ZINC000375477402   -0.0800
      8 C8         -7.4315    0.1034   57.7873 C.ar    1  ZINC000375477402   -0.0900
      9 C9         -7.7404   -1.1370   58.3129 C.ar    1  ZINC000375477402   -0.1100
     10 C10        -8.6016   -1.9814   57.6339 C.ar    1  ZINC000375477402    0.0800
     11 F11        -8.9042   -3.1940   58.1470 F       1  ZINC000375477402   -0.1200
     12 C12        -9.1580   -1.5791   56.4293 C.ar    1  ZINC000375477402    0.1000
     13 F13        -9.9989   -2.4016   55.7647 F       1  ZINC000375477402   -0.1100
     14 C14       -10.6350    1.0169   54.8554 C.3     1  ZINC000375477402    0.4400
     15 F15       -11.6081    0.3204   55.5800 F       1  ZINC000375477402   -0.1600
     16 F16       -10.2128    2.1293   55.5914 F       1  ZINC000375477402   -0.1700
     17 F17       -11.1758    1.4417   53.6371 F       1  ZINC000375477402   -0.1800
     18 N18        -7.2459    1.1133   51.8213 N.am    1  ZINC000375477402   -0.6300
     19 C19        -6.8627    0.8162   50.4284 C.3     1  ZINC000375477402    0.1000
     20 C20        -6.2851    2.1467   49.8812 C.3     1  ZINC000375477402   -0.1200
     21 C21        -5.5584    2.7028   51.1261 C.3     1  ZINC000375477402   -0.1100
     22 C22        -6.4520    2.2590   52.2942 C.3     1  ZINC000375477402    0.1400
     23 C23        -4.1679    2.0907   51.2407 C.3     1  ZINC000375477402   -0.1100
     24 C24        -3.4453    2.7063   52.4446 C.3     1  ZINC000375477402   -0.1600
     25 C25        -3.4243    4.2294   52.2899 C.3     1  ZINC000375477402    0.0600
     26 O26        -4.7638    4.7174   52.1906 O.3     1  ZINC000375477402   -0.3800
     27 C27        -5.4815    4.2219   51.0568 C.3     1  ZINC000375477402    0.0800
     28 H28        -7.9528    1.5625   54.2064 H       1  ZINC000375477402    0.4000
     29 H29        -7.7389    1.4716   56.1740 H       1  ZINC000375477402    0.1400
     30 H30        -6.7591    0.7616   58.3175 H       1  ZINC000375477402    0.1500
     31 H31        -7.3097   -1.4475   59.2533 H       1  ZINC000375477402    0.1500
     32 H32        -6.1036    0.0343   50.4025 H       1  ZINC000375477402    0.0700
     33 H33        -7.7369    0.5163   49.8504 H       1  ZINC000375477402    0.0700
     34 H34        -5.5828    1.9629   49.0683 H       1  ZINC000375477402    0.0900
     35 H35        -7.0829    2.8174   49.5623 H       1  ZINC000375477402    0.0800
     36 H36        -7.1094    3.0766   52.5902 H       1  ZINC000375477402    0.0800
     37 H37        -5.8344    1.9520   53.1382 H       1  ZINC000375477402    0.0700
     38 H38        -4.2545    1.0131   51.3798 H       1  ZINC000375477402    0.0700
     39 H39        -3.6029    2.2975   50.3319 H       1  ZINC000375477402    0.0700
     40 H40        -3.9719    2.4402   53.3611 H       1  ZINC000375477402    0.0700
     41 H41        -2.4231    2.3302   52.4877 H       1  ZINC000375477402    0.0800
     42 H42        -2.9383    4.6760   53.1574 H       1  ZINC000375477402    0.1000
     43 H43        -2.8731    4.4953   51.3880 H       1  ZINC000375477402    0.0500
     44 H44        -4.9660    4.5180   50.1432 H       1  ZINC000375477402    0.0600
     45 H45        -6.4894    4.6368   51.0554 H       1  ZINC000375477402    0.1000
@<TRIPOS>BOND
     1     1     2    2
     2     2     3   am
     3     2    18   am
     4     3     4    1
     5     3    28    1
     6     4     5    1
     7     4     6    1
     8     4    14    1
     9     6    12   ar
    10     6     7   ar
    11     7     8   ar
    12     7    29    1
    13     8     9   ar
    14     8    30    1
    15     9    10   ar
    16     9    31    1
    17    10    11    1
    18    10    12   ar
    19    12    13    1
    20    14    15    1
    21    14    16    1
    22    14    17    1
    23    18    22    1
    24    18    19    1
    25    19    20    1
    26    19    32    1
    27    19    33    1
    28    20    21    1
    29    20    34    1
    30    20    35    1
    31    21    27    1
    32    21    22    1
    33    21    23    1
    34    22    36    1
    35    22    37    1
    36    23    24    1
    37    23    38    1
    38    23    39    1
    39    24    25    1
    40    24    40    1
    41    24    41    1
    42    25    26    1
    43    25    42    1
    44    25    43    1
    45    26    27    1
    46    27    44    1
    47    27    45    1
@<TRIPOS>SUBSTRUCTURE
     1 ZINC000375477402        1 TEMP              0 ****  ****    0 ROOT


##########                                Name:    ZINC000530457945
##########                DOCK_Rotatable_Bonds:                   4
##########                         Heavy_Atoms:                  25
##########                    Molecular_Weight:             355.827
##########                DOCK_Rotatable_Bonds:                   4
##########                       Formal_Charge:           0.0199997
##########                     HBond_Acceptors:                   7
##########                        HBond_Donors:                   1
##########                         Heavy_Atoms:                  25
##########                          Grid_Score:          -26.809765
##########                     Grid_vdw_energy:          -26.616920
##########                      Grid_es_energy:           -0.192845
##########           Internal_energy_repulsive:           31.562786

@<TRIPOS>MOLECULE
ZINC000530457945
 43 46 1 0 0
SMALL
USER_CHARGES


@<TRIPOS>ATOM
      1 C1         -4.4635    2.6776   52.5679 C.3     1  ZINC000530457945   -0.1700
      2 C2         -5.7872    2.8727   51.8259 C.3     1  ZINC000530457945    0.0900
      3 H3         -6.4986    3.3929   52.4674 H       1  ZINC000530457945    0.1100
      4 C4         -6.3615    1.5027   51.4078 C.3     1  ZINC000530457945   -0.1200
      5 H5         -5.5700    0.7560   51.3448 H       1  ZINC000530457945    0.1100
      6 C6         -7.4344    1.0591   52.3687 C.2     1  ZINC000530457945    0.5300
      7 O7         -7.3940    1.4126   53.5281 O.2     1  ZINC000530457945   -0.4700
      8 N8         -8.4389    0.2696   51.9394 N.am    1  ZINC000530457945   -0.6200
      9 C9         -9.4325   -0.1427   52.8302 C.2     1  ZINC000530457945    0.4800
     10 N10        -9.2180   -0.6527   54.0260 N.2     1  ZINC000530457945   -0.3000
     11 N11       -10.4730   -0.9300   54.5864 N.pl3   1  ZINC000530457945   -0.2800
     12 C12       -10.8617   -1.4549   55.7783 C.2     1  ZINC000530457945    0.1400
     13 C13       -12.1747   -1.6155   56.0642 C.2     1  ZINC000530457945   -0.0800
     14 Cl14      -12.6521   -2.2876   57.5919 Cl      1  ZINC000530457945   -0.0200
     15 C15       -13.1511   -1.2396   55.1293 C.2     1  ZINC000530457945   -0.0500
     16 C16       -12.7694   -0.7124   53.9326 C.2     1  ZINC000530457945   -0.0900
     17 C17       -11.3997   -0.5547   53.6559 C.2     1  ZINC000530457945    0.3000
     18 N18       -10.7408   -0.0763   52.6050 N.2     1  ZINC000530457945   -0.5500
     19 C19        -6.9597    1.7877   50.0051 C.3     1  ZINC000530457945   -0.1200
     20 C20        -5.9456    2.8103   49.4344 C.3     1  ZINC000530457945    0.0400
     21 N21        -5.5617    3.6500   50.5935 N.3     1  ZINC000530457945   -0.4900
     22 C22        -4.2295    4.0583   50.4962 C.ar    1  ZINC000530457945    0.1000
     23 C23        -3.8795    5.3689   50.7953 C.ar    1  ZINC000530457945   -0.1600
     24 C24        -2.5612    5.7692   50.6985 C.ar    1  ZINC000530457945   -0.1100
     25 C25        -1.5903    4.8670   50.3038 C.ar    1  ZINC000530457945   -0.1300
     26 C26        -1.9353    3.5617   50.0053 C.ar    1  ZINC000530457945   -0.1100
     27 C27        -3.2507    3.1532   50.1056 C.ar    1  ZINC000530457945   -0.1000
     28 H28        -4.0027    3.6485   52.7502 H       1  ZINC000530457945    0.0700
     29 H29        -4.6502    2.1797   53.5194 H       1  ZINC000530457945    0.0600
     30 H30        -3.7945    2.0659   51.9627 H       1  ZINC000530457945    0.0600
     31 H31        -8.4719   -0.0120   51.0118 H       1  ZINC000530457945    0.4300
     32 H32       -10.1163   -1.7466   56.5033 H       1  ZINC000530457945    0.1800
     33 H33       -14.1990   -1.3679   55.3569 H       1  ZINC000530457945    0.1600
     34 H34       -13.5107   -0.4194   53.2040 H       1  ZINC000530457945    0.1700
     35 H35        -6.9836    0.8819   49.3994 H       1  ZINC000530457945    0.0900
     36 H36        -7.9537    2.2275   50.0866 H       1  ZINC000530457945    0.0900
     37 H37        -5.0734    2.2953   49.0317 H       1  ZINC000530457945    0.0700
     38 H38        -6.4158    3.4215   48.6642 H       1  ZINC000530457945    0.0900
     39 H39        -4.6373    6.0741   51.1029 H       1  ZINC000530457945    0.1200
     40 H40        -2.2884    6.7880   50.9309 H       1  ZINC000530457945    0.1200
     41 H41        -0.5602    5.1828   50.2282 H       1  ZINC000530457945    0.1200
     42 H42        -1.1745    2.8596   49.6973 H       1  ZINC000530457945    0.1300
     43 H43        -3.5195    2.1335   49.8726 H       1  ZINC000530457945    0.1300
@<TRIPOS>BOND
     1     1     2    1
     2     1    28    1
     3     1    29    1
     4     1    30    1
     5     2     3    1
     6     2    21    1
     7     2     4    1
     8     4     5    1
     9     4     6    1
    10     4    19    1
    11     6     7    2
    12     6     8   am
    13     8     9    1
    14     8    31    1
    15     9    18    1
    16     9    10    2
    17    10    11    1
    18    11    17    1
    19    11    12    1
    20    12    13    2
    21    12    32    1
    22    13    14    1
    23    13    15    1
    24    15    16    2
    25    15    33    1
    26    16    17    1
    27    16    34    1
    28    17    18    2
    29    19    20    1
    30    19    35    1
    31    19    36    1
    32    20    21    1
    33    20    37    1
    34    20    38    1
    35    21    22    1
    36    22    27   ar
    37    22    23   ar
    38    23    24   ar
    39    23    39    1
    40    24    25   ar
    41    24    40    1
    42    25    26   ar
    43    25    41    1
    44    26    27   ar
    45    26    42    1
    46    27    43    1
@<TRIPOS>SUBSTRUCTURE
     1 ZINC000530457945        1 TEMP              0 ****  ****    0 ROOT


##########                                Name:    ZINC000879023512
##########                DOCK_Rotatable_Bonds:                   4
##########                         Heavy_Atoms:                  20
##########                    Molecular_Weight:             346.156
##########                DOCK_Rotatable_Bonds:                   4
##########                       Formal_Charge:        -5.96046e-08
##########                     HBond_Acceptors:                   7
##########                        HBond_Donors:                   1
##########                         Heavy_Atoms:                  20
##########                          Grid_Score:          -26.740677
##########                     Grid_vdw_energy:          -25.737478
##########                      Grid_es_energy:           -1.003199
##########           Internal_energy_repulsive:            2.339843

@<TRIPOS>MOLECULE
ZINC000879023512
 33 34 1 0 0
SMALL
USER_CHARGES


@<TRIPOS>ATOM
      1 O1        -13.2862   -2.6177   58.8146 O.2     1  ZINC000879023512   -0.5600
      2 C2        -13.5225   -2.4750   57.6304 C.2     1  ZINC000879023512    0.7200
      3 N3        -12.5087   -2.3901   56.7464 N.am    1  ZINC000879023512   -0.6800
      4 C4        -11.1837   -2.4606   57.1922 C.ar    1  ZINC000879023512    0.1800
      5 C5        -10.4156   -1.3069   57.2753 C.ar    1  ZINC000879023512   -0.0900
      6 C6         -9.1083   -1.3792   57.7155 C.ar    1  ZINC000879023512   -0.0700
      7 C7         -8.5640   -2.5997   58.0730 C.ar    1  ZINC000879023512   -0.0700
      8 Br8        -6.7740   -2.6949   58.6751 Br      1  ZINC000879023512    0.0200
      9 C9         -9.3273   -3.7511   57.9911 C.ar    1  ZINC000879023512    0.0000
     10 N10        -8.7417   -5.0553   58.3745 N.pl3   1  ZINC000879023512    0.0200
     11 O11        -9.4130   -6.0691   58.3027 O.2     1  ZINC000879023512   -0.1500
     12 O12        -7.5884   -5.1148   58.7618 O.2     1  ZINC000879023512   -0.1300
     13 C13       -10.6367   -3.6837   57.5577 C.ar    1  ZINC000879023512   -0.0500
     14 N14       -14.7983   -2.4071   57.2013 N.am    1  ZINC000879023512   -0.6300
     15 C15       -15.2248   -2.2488   55.8032 C.3     1  ZINC000879023512    0.0900
     16 C16       -16.7670   -2.1960   55.7977 C.3     1  ZINC000879023512   -0.1200
     17 C17       -17.1049   -1.7591   57.2477 C.3     1  ZINC000879023512   -0.1400
     18 H18       -17.0274   -0.6774   57.3580 H       1  ZINC000879023512    0.1000
     19 C19       -18.4938   -2.2513   57.6593 C.3     1  ZINC000879023512    0.0700
     20 F20       -18.7701   -1.8299   58.9644 F       1  ZINC000879023512   -0.2100
     21 C21       -15.9974   -2.4858   58.0552 C.3     1  ZINC000879023512    0.1300
     22 H22       -12.6973   -2.2803   55.8013 H       1  ZINC000879023512    0.4200
     23 H23       -10.8398   -0.3539   56.9956 H       1  ZINC000879023512    0.1600
     24 H24        -8.5104   -0.4821   57.7802 H       1  ZINC000879023512    0.1600
     25 H25       -11.2320   -4.5825   57.4944 H       1  ZINC000879023512    0.1800
     26 H26       -14.8206   -1.3225   55.3949 H       1  ZINC000879023512    0.0700
     27 H27       -14.8809   -3.0978   55.2123 H       1  ZINC000879023512    0.0700
     28 H28       -17.1251   -1.4584   55.0795 H       1  ZINC000879023512    0.0900
     29 H29       -17.1860   -3.1792   55.5838 H       1  ZINC000879023512    0.0900
     30 H30       -19.2407   -1.8412   56.9795 H       1  ZINC000879023512    0.0800
     31 H31       -18.5213   -3.3400   57.6154 H       1  ZINC000879023512    0.0800
     32 H32       -16.2765   -3.5246   58.2317 H       1  ZINC000879023512    0.0800
     33 H33       -15.8197   -1.9739   59.0010 H       1  ZINC000879023512    0.0900
@<TRIPOS>BOND
     1     1     2    2
     2     2     3   am
     3     2    14   am
     4     3     4    1
     5     3    22    1
     6     4    13   ar
     7     4     5   ar
     8     5     6   ar
     9     5    23    1
    10     6     7   ar
    11     6    24    1
    12     7     8    1
    13     7     9   ar
    14     9    10    1
    15     9    13   ar
    16    10    11    2
    17    10    12    2
    18    13    25    1
    19    14    21    1
    20    14    15    1
    21    15    16    1
    22    15    26    1
    23    15    27    1
    24    16    17    1
    25    16    28    1
    26    16    29    1
    27    17    18    1
    28    17    19    1
    29    17    21    1
    30    19    20    1
    31    19    30    1
    32    19    31    1
    33    21    32    1
    34    21    33    1
@<TRIPOS>SUBSTRUCTURE
     1 ZINC000879023512        1 TEMP              0 ****  ****    0 ROOT


##########                                Name:    ZINC000464706598
##########                DOCK_Rotatable_Bonds:                   4
##########                         Heavy_Atoms:                  26
##########                    Molecular_Weight:             412.286
##########                DOCK_Rotatable_Bonds:                   4
##########                       Formal_Charge:           0.0100001
##########                     HBond_Acceptors:                   5
##########                        HBond_Donors:                   0
##########                         Heavy_Atoms:                  26
##########                          Grid_Score:          -26.739235
##########                     Grid_vdw_energy:          -26.341684
##########                      Grid_es_energy:           -0.397551
##########           Internal_energy_repulsive:           57.328671

@<TRIPOS>MOLECULE
ZINC000464706598
 44 47 1 0 0
SMALL
USER_CHARGES


@<TRIPOS>ATOM
      1 O1        -10.1632    0.0170   58.6963 O.2     1  ZINC000464706598   -0.5000
      2 C2        -10.4778   -1.0921   58.3092 C.2     1  ZINC000464706598    0.5900
      3 C3        -11.8815   -1.5334   58.3990 C.2     1  ZINC000464706598   -0.2800
      4 C4        -12.7830   -1.6152   57.3564 C.2     1  ZINC000464706598    0.1300
      5 N5        -13.9460   -2.0613   57.8650 N.pl3   1  ZINC000464706598   -0.3100
      6 C6        -15.1246   -2.2859   57.1403 C.ar    1  ZINC000464706598    0.1700
      7 C7        -16.3109   -2.5573   57.8088 C.ar    1  ZINC000464706598   -0.1300
      8 C8        -17.4709   -2.7779   57.0924 C.ar    1  ZINC000464706598   -0.0600
      9 C9        -17.4514   -2.7292   55.7098 C.ar    1  ZINC000464706598   -0.1000
     10 Br10      -19.0414   -3.0324   54.7321 Br      1  ZINC000464706598   -0.0400
     11 C11       -16.2706   -2.4585   55.0412 C.ar    1  ZINC000464706598   -0.0700
     12 C12       -15.1090   -2.2320   55.7530 C.ar    1  ZINC000464706598   -0.1100
     13 N13       -13.7798   -2.2635   59.2397 N.2     1  ZINC000464706598   -0.2800
     14 C14       -12.5543   -1.9578   59.5671 C.2     1  ZINC000464706598    0.0700
     15 N15        -9.5442   -1.9157   57.7928 N.am    1  ZINC000464706598   -0.6100
     16 C16        -9.9021   -3.2596   57.3123 C.3     1  ZINC000464706598    0.0400
     17 C17        -8.9402   -4.2715   57.9456 C.3     1  ZINC000464706598    0.0500
     18 O18        -7.5940   -3.8513   57.7118 O.3     1  ZINC000464706598   -0.3700
     19 C19        -7.2613   -2.5950   58.3075 C.3     1  ZINC000464706598    0.0500
     20 C20        -8.1380   -1.4951   57.6875 C.3     1  ZINC000464706598    0.1600
     21 H21        -7.8679   -1.3569   56.6406 H       1  ZINC000464706598    0.0900
     22 C22        -7.9383   -0.2036   58.4378 C.ar    1  ZINC000464706598   -0.0500
     23 C23        -7.8412   -0.2132   59.8168 C.ar    1  ZINC000464706598   -0.1000
     24 C24        -7.6580    0.9714   60.5051 C.ar    1  ZINC000464706598   -0.1100
     25 C25        -7.5715    2.1658   59.8145 C.ar    1  ZINC000464706598   -0.1200
     26 C26        -7.6676    2.1754   58.4356 C.ar    1  ZINC000464706598   -0.1100
     27 C27        -7.8465    0.9902   57.7469 C.ar    1  ZINC000464706598   -0.1000
     28 H28       -12.5904   -1.3664   56.3234 H       1  ZINC000464706598    0.1900
     29 H29       -16.3266   -2.5961   58.8880 H       1  ZINC000464706598    0.1400
     30 H30       -18.3940   -2.9890   57.6119 H       1  ZINC000464706598    0.1500
     31 H31       -16.2581   -2.4208   53.9620 H       1  ZINC000464706598    0.1500
     32 H32       -14.1876   -2.0205   55.2308 H       1  ZINC000464706598    0.1500
     33 H33       -12.1302   -2.0131   60.5587 H       1  ZINC000464706598    0.2100
     34 H34       -10.9257   -3.4936   57.6046 H       1  ZINC000464706598    0.1200
     35 H35        -9.8120   -3.2973   56.2267 H       1  ZINC000464706598    0.0800
     36 H36        -9.1236   -4.3258   59.0187 H       1  ZINC000464706598    0.0600
     37 H37        -9.0981   -5.2530   57.4985 H       1  ZINC000464706598    0.1100
     38 H38        -7.4385   -2.6431   59.3819 H       1  ZINC000464706598    0.0600
     39 H39        -6.2111   -2.3702   58.1207 H       1  ZINC000464706598    0.1100
     40 H40        -7.9088   -1.1464   60.3564 H       1  ZINC000464706598    0.1100
     41 H41        -7.5828    0.9639   61.5825 H       1  ZINC000464706598    0.1200
     42 H42        -7.4290    3.0914   60.3524 H       1  ZINC000464706598    0.1200
     43 H43        -7.6004    3.1085   57.8960 H       1  ZINC000464706598    0.1200
     44 H44        -7.9216    0.9977   56.6695 H       1  ZINC000464706598    0.1100
@<TRIPOS>BOND
     1     1     2    2
     2     2     3    1
     3     2    15   am
     4     3    14    1
     5     3     4    2
     6     4     5    1
     7     4    28    1
     8     5     6    1
     9     5    13    1
    10     6    12   ar
    11     6     7   ar
    12     7     8   ar
    13     7    29    1
    14     8     9   ar
    15     8    30    1
    16     9    10    1
    17     9    11   ar
    18    11    12   ar
    19    11    31    1
    20    12    32    1
    21    13    14    2
    22    14    33    1
    23    15    20    1
    24    15    16    1
    25    16    17    1
    26    16    34    1
    27    16    35    1
    28    17    18    1
    29    17    36    1
    30    17    37    1
    31    18    19    1
    32    19    20    1
    33    19    38    1
    34    19    39    1
    35    20    21    1
    36    20    22    1
    37    22    27   ar
    38    22    23   ar
    39    23    24   ar
    40    23    40    1
    41    24    25   ar
    42    24    41    1
    43    25    26   ar
    44    25    42    1
    45    26    27   ar
    46    26    43    1
    47    27    44    1
@<TRIPOS>SUBSTRUCTURE
     1 ZINC000464706598        1 TEMP              0 ****  ****    0 ROOT


##########                                Name:    ZINC000966038509
##########                DOCK_Rotatable_Bonds:                   5
##########                         Heavy_Atoms:                  25
##########                    Molecular_Weight:             346.445
##########                DOCK_Rotatable_Bonds:                   5
##########                       Formal_Charge:           0.0299998
##########                     HBond_Acceptors:                   5
##########                        HBond_Donors:                   1
##########                         Heavy_Atoms:                  25
##########                          Grid_Score:          -26.729364
##########                     Grid_vdw_energy:          -25.915466
##########                      Grid_es_energy:           -0.813898
##########           Internal_energy_repulsive:           18.364216

@<TRIPOS>MOLECULE
ZINC000966038509
 52 54 1 0 0
SMALL
USER_CHARGES


@<TRIPOS>ATOM
      1 C1         -6.0453    2.5651   54.8073 C.3     1  ZINC000966038509   -0.1200
      2 C2         -7.0068    1.7000   54.0339 C.ar    1  ZINC000966038509   -0.0100
      3 C3         -6.7780    1.4348   52.7008 C.ar    1  ZINC000966038509   -0.1600
      4 C4         -7.6622    0.6395   51.9879 C.ar    1  ZINC000966038509    0.1300
      5 F5         -7.4335    0.3830   50.6813 F       1  ZINC000966038509   -0.1300
      6 C6         -8.7800    0.1061   52.6112 C.ar    1  ZINC000966038509   -0.1600
      7 C7         -9.0183    0.3649   53.9439 C.ar    1  ZINC000966038509   -0.0100
      8 C8        -10.2340   -0.2151   54.6199 C.3     1  ZINC000966038509   -0.1200
      9 C9         -8.1283    1.1610   54.6680 C.ar    1  ZINC000966038509   -0.1500
     10 C10        -8.3786    1.4418   56.0965 C.2     1  ZINC000966038509    0.5700
     11 O11        -8.6844    2.5638   56.4510 O.2     1  ZINC000966038509   -0.5200
     12 N12        -8.2679    0.4542   57.0070 N.am    1  ZINC000966038509   -0.7100
     13 C13        -8.5178    0.7324   58.4234 C.3     1  ZINC000966038509    0.1300
     14 H14        -7.9390    1.5931   58.7585 H       1  ZINC000966038509    0.1200
     15 C15       -10.0294    0.9421   58.6898 C.3     1  ZINC000966038509    0.0900
     16 N16       -10.5883   -0.4188   58.7845 N.am    1  ZINC000966038509   -0.6200
     17 C17       -11.8721   -0.7585   58.5542 C.2     1  ZINC000966038509    0.5400
     18 O18       -12.6773    0.0920   58.2394 O.2     1  ZINC000966038509   -0.5300
     19 C19       -12.3069   -2.1952   58.6878 C.3     1  ZINC000966038509   -0.1100
     20 C20       -13.8383   -2.2803   58.9041 C.3     1  ZINC000966038509   -0.1100
     21 C21       -14.1732   -3.7122   58.4177 C.3     1  ZINC000966038509   -0.1200
     22 C22       -13.2551   -3.9209   57.1955 C.3     1  ZINC000966038509   -0.1200
     23 C23       -12.0684   -2.9565   57.3673 C.3     1  ZINC000966038509   -0.1100
     24 C24        -9.5132   -1.3441   59.1711 C.3     1  ZINC000966038509    0.1000
     25 C25        -8.2168   -0.5144   59.2966 C.3     1  ZINC000966038509   -0.1100
     26 H26        -8.0421   -0.2264   60.3333 H       1  ZINC000966038509    0.1000
     27 C27        -7.0207   -1.2920   58.7439 C.3     1  ZINC000966038509   -0.1400
     28 H28        -5.2688    1.9403   55.2487 H       1  ZINC000966038509    0.0800
     29 H29        -5.5888    3.2916   54.1351 H       1  ZINC000966038509    0.0800
     30 H30        -6.5830    3.0891   55.5976 H       1  ZINC000966038509    0.0700
     31 H31        -5.9088    1.8476   52.2106 H       1  ZINC000966038509    0.1400
     32 H32        -9.4653   -0.5131   52.0514 H       1  ZINC000966038509    0.1400
     33 H33        -9.9852   -1.1888   55.0417 H       1  ZINC000966038509    0.0800
     34 H34       -10.5603    0.4534   55.4166 H       1  ZINC000966038509    0.0700
     35 H35       -11.0356   -0.3292   53.8902 H       1  ZINC000966038509    0.0800
     36 H36        -8.0227   -0.4406   56.7244 H       1  ZINC000966038509    0.4000
     37 H37       -10.1786    1.4796   59.6262 H       1  ZINC000966038509    0.0800
     38 H38       -10.4886    1.4841   57.8631 H       1  ZINC000966038509    0.0800
     39 H39       -11.7763   -2.6787   59.5080 H       1  ZINC000966038509    0.0900
     40 H40       -14.0865   -2.1627   59.9589 H       1  ZINC000966038509    0.0700
     41 H41       -14.3558   -1.5358   58.2991 H       1  ZINC000966038509    0.0700
     42 H42       -13.9458   -4.4420   59.1946 H       1  ZINC000966038509    0.0700
     43 H43       -15.2206   -3.7800   58.1239 H       1  ZINC000966038509    0.0700
     44 H44       -12.8984   -4.9506   57.1681 H       1  ZINC000966038509    0.0700
     45 H45       -13.7958   -3.6880   56.2782 H       1  ZINC000966038509    0.0700
     46 H46       -12.0334   -2.2554   56.5334 H       1  ZINC000966038509    0.0800
     47 H47       -11.1360   -3.5180   57.4232 H       1  ZINC000966038509    0.0700
     48 H48        -9.7501   -1.8084   60.1283 H       1  ZINC000966038509    0.0800
     49 H49        -9.3903   -2.1101   58.4055 H       1  ZINC000966038509    0.0700
     50 H50        -7.2027   -1.5440   57.6991 H       1  ZINC000966038509    0.0600
     51 H51        -6.1227   -0.6787   58.8186 H       1  ZINC000966038509    0.0700
     52 H52        -6.8847   -2.2072   59.3200 H       1  ZINC000966038509    0.0700
@<TRIPOS>BOND
     1     1     2    1
     2     1    28    1
     3     1    29    1
     4     1    30    1
     5     2     9   ar
     6     2     3   ar
     7     3     4   ar
     8     3    31    1
     9     4     5    1
    10     4     6   ar
    11     6     7   ar
    12     6    32    1
    13     7     8    1
    14     7     9   ar
    15     8    33    1
    16     8    34    1
    17     8    35    1
    18     9    10    1
    19    10    11    2
    20    10    12   am
    21    12    13    1
    22    12    36    1
    23    13    14    1
    24    13    25    1
    25    13    15    1
    26    15    16    1
    27    15    37    1
    28    15    38    1
    29    16    17   am
    30    16    24    1
    31    17    18    2
    32    17    19    1
    33    19    23    1
    34    19    20    1
    35    19    39    1
    36    20    21    1
    37    20    40    1
    38    20    41    1
    39    21    22    1
    40    21    42    1
    41    21    43    1
    42    22    23    1
    43    22    44    1
    44    22    45    1
    45    23    46    1
    46    23    47    1
    47    24    25    1
    48    24    48    1
    49    24    49    1
    50    25    26    1
    51    25    27    1
    52    27    50    1
    53    27    51    1
    54    27    52    1
@<TRIPOS>SUBSTRUCTURE
     1 ZINC000966038509        1 TEMP              0 ****  ****    0 ROOT


##########                                Name:    ZINC001002468398
##########                DOCK_Rotatable_Bonds:                   7
##########                         Heavy_Atoms:                  24
##########                    Molecular_Weight:             341.358
##########                DOCK_Rotatable_Bonds:                   7
##########                       Formal_Charge:           0.0100001
##########                     HBond_Acceptors:                   8
##########                        HBond_Donors:                   0
##########                         Heavy_Atoms:                  24
##########                          Grid_Score:          -26.721039
##########                     Grid_vdw_energy:          -26.089228
##########                      Grid_es_energy:           -0.631811
##########           Internal_energy_repulsive:           17.887589

@<TRIPOS>MOLECULE
ZINC001002468398
 45 47 1 0 0
SMALL
USER_CHARGES


@<TRIPOS>ATOM
      1 C1         -6.4667    2.8060   53.8734 C.3     1  ZINC001002468398   -0.1400
      2 C2         -7.6947    2.8165   52.9609 C.3     1  ZINC001002468398   -0.0500
      3 C3         -7.7917    1.4999   52.2341 C.2     1  ZINC001002468398    0.0500
      4 C4         -8.4758    0.3971   52.6437 C.2     1  ZINC001002468398   -0.0800
      5 C5         -9.2627    0.2648   53.8832 C.2     1  ZINC001002468398    0.6000
      6 O6         -8.6985    0.2190   54.9596 O.2     1  ZINC001002468398   -0.5300
      7 N7        -10.6073    0.1946   53.8237 N.am    1  ZINC001002468398   -0.6000
      8 C8        -11.2869    0.2498   52.5270 C.3     1  ZINC001002468398    0.0900
      9 C9        -11.3892    0.0632   55.0555 C.3     1  ZINC001002468398    0.1000
     10 C10       -12.3131   -1.1514   54.9459 C.3     1  ZINC001002468398    0.1300
     11 H11       -12.1071   -1.6916   54.0219 H       1  ZINC001002468398    0.0800
     12 C12       -13.7868   -0.6937   54.9690 C.3     1  ZINC001002468398   -0.1300
     13 C13       -14.4797   -1.7957   55.8133 C.3     1  ZINC001002468398   -0.1300
     14 C14       -13.3795   -2.1303   56.8511 C.3     1  ZINC001002468398    0.1000
     15 N15       -12.1105   -2.0396   56.0999 N.am    1  ZINC001002468398   -0.6100
     16 C16       -10.9609   -2.6653   56.4214 C.2     1  ZINC001002468398    0.5600
     17 O17        -9.9760   -2.5176   55.7292 O.2     1  ZINC001002468398   -0.5100
     18 C18       -10.8992   -3.5482   57.6412 C.3     1  ZINC001002468398   -0.2000
     19 H19       -11.6888   -4.2952   57.7212 H       1  ZINC001002468398    0.1500
     20 C20       -10.3824   -2.9246   58.9392 C.3     1  ZINC001002468398   -0.1500
     21 C21        -9.5143   -3.9247   58.1714 C.3     1  ZINC001002468398    0.2300
     22 F22        -9.3584   -5.2011   58.7223 F       1  ZINC001002468398   -0.1500
     23 F23        -8.4021   -3.4225   57.4872 F       1  ZINC001002468398   -0.1400
     24 N24        -8.2973   -0.5604   51.6934 N.2     1  ZINC001002468398   -0.4600
     25 C25        -7.5453   -0.0722   50.7530 C.2     1  ZINC001002468398    0.1700
     26 O26        -7.2244    1.1935   51.0564 O.3     1  ZINC001002468398   -0.2000
     27 H27        -6.5593    1.9970   54.5980 H       1  ZINC001002468398    0.0600
     28 H28        -5.5693    2.6553   53.2733 H       1  ZINC001002468398    0.0600
     29 H29        -6.3966    3.7583   54.3991 H       1  ZINC001002468398    0.0700
     30 H30        -8.5920    2.9672   53.5609 H       1  ZINC001002468398    0.1200
     31 H31        -7.6020    3.6254   52.2362 H       1  ZINC001002468398    0.0900
     32 H32       -10.9958   -0.6126   51.9272 H       1  ZINC001002468398    0.0700
     33 H33       -12.3659    0.2374   52.6815 H       1  ZINC001002468398    0.0700
     34 H34       -11.0048    1.1656   52.0076 H       1  ZINC001002468398    0.0700
     35 H35       -10.7148   -0.0685   55.9017 H       1  ZINC001002468398    0.0900
     36 H36       -11.9873    0.9623   55.2040 H       1  ZINC001002468398    0.0900
     37 H37       -13.8811    0.2788   55.4521 H       1  ZINC001002468398    0.1000
     38 H38       -14.1976   -0.6656   53.9598 H       1  ZINC001002468398    0.0800
     39 H39       -15.3736   -1.4088   56.3025 H       1  ZINC001002468398    0.0900
     40 H40       -14.7169   -2.6658   55.2011 H       1  ZINC001002468398    0.0800
     41 H41       -13.3925   -1.4053   57.6650 H       1  ZINC001002468398    0.0800
     42 H42       -13.5179   -3.1396   57.2388 H       1  ZINC001002468398    0.0800
     43 H43       -10.0870   -1.8757   58.9111 H       1  ZINC001002468398    0.1300
     44 H44       -10.8318   -3.2617   59.8733 H       1  ZINC001002468398    0.1400
     45 H45        -7.2319   -0.6011   49.8651 H       1  ZINC001002468398    0.2600
@<TRIPOS>BOND
     1     1     2    1
     2     1    27    1
     3     1    28    1
     4     1    29    1
     5     2     3    1
     6     2    30    1
     7     2    31    1
     8     3    26    1
     9     3     4    2
    10     4     5    1
    11     4    24    1
    12     5     6    2
    13     5     7   am
    14     7     8    1
    15     7     9    1
    16     8    32    1
    17     8    33    1
    18     8    34    1
    19     9    10    1
    20     9    35    1
    21     9    36    1
    22    10    11    1
    23    10    15    1
    24    10    12    1
    25    12    13    1
    26    12    37    1
    27    12    38    1
    28    13    14    1
    29    13    39    1
    30    13    40    1
    31    14    15    1
    32    14    41    1
    33    14    42    1
    34    15    16   am
    35    16    17    2
    36    16    18    1
    37    18    19    1
    38    18    21    1
    39    18    20    1
    40    20    21    1
    41    20    43    1
    42    20    44    1
    43    21    22    1
    44    21    23    1
    45    24    25    2
    46    25    26    1
    47    25    45    1
@<TRIPOS>SUBSTRUCTURE
     1 ZINC001002468398        1 TEMP              0 ****  ****    0 ROOT


##########                                Name:    ZINC000426037318
##########                DOCK_Rotatable_Bonds:                   7
##########                         Heavy_Atoms:                  28
##########                    Molecular_Weight:             421.904
##########                DOCK_Rotatable_Bonds:                   7
##########                       Formal_Charge:         -0.00999981
##########                     HBond_Acceptors:                   9
##########                        HBond_Donors:                   1
##########                         Heavy_Atoms:                  28
##########                          Grid_Score:          -26.718678
##########                     Grid_vdw_energy:          -26.383547
##########                      Grid_es_energy:           -0.335130
##########           Internal_energy_repulsive:           18.936825

@<TRIPOS>MOLECULE
ZINC000426037318
 48 50 1 0 0
SMALL
USER_CHARGES


@<TRIPOS>ATOM
      1 C1         -4.0923    2.4579   48.7388 C.3     1  ZINC000426037318    0.0300
      2 O2         -5.2443    2.0483   49.4785 O.3     1  ZINC000426037318   -0.3800
      3 C3         -5.4060    2.7272   50.7255 C.3     1  ZINC000426037318    0.1300
      4 C4         -6.7821    2.4502   51.2736 C.ar    1  ZINC000426037318    0.3900
      5 N5         -7.8255    3.0205   50.6983 N.ar    1  ZINC000426037318   -0.5700
      6 C6         -9.0542    2.8104   51.1395 C.ar    1  ZINC000426037318    0.4400
      7 O7        -10.1113    3.4030   50.5370 O.3     1  ZINC000426037318   -0.2800
      8 C8         -9.8722    4.0269   49.2739 C.3     1  ZINC000426037318    0.0300
      9 C9         -9.2478    1.9525   52.2557 C.ar    1  ZINC000426037318   -0.2000
     10 C10       -10.4285    1.5733   52.9046 C.2     1  ZINC000426037318    0.0500
     11 C11       -11.7821    2.0699   52.4663 C.3     1  ZINC000426037318   -0.1200
     12 C12       -10.2745    0.7397   53.9406 C.2     1  ZINC000426037318   -0.2700
     13 C13       -11.3735    0.2157   54.7612 C.2     1  ZINC000426037318    0.6000
     14 O14       -11.6617    0.7594   55.8110 O.2     1  ZINC000426037318   -0.5000
     15 N15       -12.0631   -0.8674   54.3516 N.am    1  ZINC000426037318   -0.6600
     16 C16       -13.1116   -1.3674   55.1345 C.ar    1  ZINC000426037318    0.1200
     17 C17       -12.8890   -2.4342   55.9941 C.ar    1  ZINC000426037318   -0.0700
     18 C18       -13.9233   -2.9264   56.7662 C.ar    1  ZINC000426037318   -0.0900
     19 C19       -13.6811   -4.0843   57.6997 C.3     1  ZINC000426037318   -0.1100
     20 C20       -15.1845   -2.3553   56.6829 C.ar    1  ZINC000426037318    0.1300
     21 O21       -16.2016   -2.8405   57.4437 O.3     1  ZINC000426037318   -0.3100
     22 C22       -17.4388   -2.1265   57.4045 C.3     1  ZINC000426037318    0.0200
     23 C23       -15.4088   -1.2889   55.8242 C.ar    1  ZINC000426037318   -0.1800
     24 C24       -14.3743   -0.7918   55.0551 C.ar    1  ZINC000426037318   -0.0300
     25 Cl25      -14.6545    0.5429   53.9809 Cl      1  ZINC000426037318   -0.0600
     26 S26        -8.5783    0.3586   54.1830 S.3     1  ZINC000426037318    0.2200
     27 C27        -8.1053    1.3739   52.8275 C.ar    1  ZINC000426037318    0.1300
     28 N28        -6.9049    1.6454   52.3041 N.ar    1  ZINC000426037318   -0.5000
     29 H29        -4.0410    1.8964   47.8060 H       1  ZINC000426037318    0.0900
     30 H30        -4.1620    3.5231   48.5183 H       1  ZINC000426037318    0.0500
     31 H31        -3.1953    2.2668   49.3279 H       1  ZINC000426037318    0.0500
     32 H32        -4.6554    2.3731   51.4321 H       1  ZINC000426037318    0.0900
     33 H33        -5.2846    3.7998   50.5736 H       1  ZINC000426037318    0.0800
     34 H34        -9.5096    3.2833   48.5642 H       1  ZINC000426037318    0.0700
     35 H35       -10.7998    4.4620   48.9021 H       1  ZINC000426037318    0.1100
     36 H36        -9.1246    4.8114   49.3918 H       1  ZINC000426037318    0.0700
     37 H37       -12.1984    1.3853   51.7272 H       1  ZINC000426037318    0.0900
     38 H38       -12.4469    2.1217   53.3285 H       1  ZINC000426037318    0.1000
     39 H39       -11.6802    3.0617   52.0260 H       1  ZINC000426037318    0.0800
     40 H40       -11.8334   -1.3008   53.5147 H       1  ZINC000426037318    0.4100
     41 H41       -11.9072   -2.8795   56.0591 H       1  ZINC000426037318    0.1600
     42 H42       -13.3751   -3.7066   58.6754 H       1  ZINC000426037318    0.0700
     43 H43       -14.5983   -4.6636   57.8057 H       1  ZINC000426037318    0.0700
     44 H44       -12.8946   -4.7203   57.2934 H       1  ZINC000426037318    0.0700
     45 H45       -17.2792   -1.1040   57.7468 H       1  ZINC000426037318    0.0600
     46 H46       -17.8182   -2.1127   56.3828 H       1  ZINC000426037318    0.0600
     47 H47       -18.1628   -2.6182   58.0543 H       1  ZINC000426037318    0.1000
     48 H48       -16.3912   -0.8447   55.7599 H       1  ZINC000426037318    0.1500
@<TRIPOS>BOND
     1     1     2    1
     2     1    29    1
     3     1    30    1
     4     1    31    1
     5     2     3    1
     6     3     4    1
     7     3    32    1
     8     3    33    1
     9     4    28   ar
    10     4     5   ar
    11     5     6   ar
    12     6     7    1
    13     6     9   ar
    14     7     8    1
    15     8    34    1
    16     8    35    1
    17     8    36    1
    18     9    27   ar
    19     9    10    1
    20    10    11    1
    21    10    12    2
    22    11    37    1
    23    11    38    1
    24    11    39    1
    25    12    13    1
    26    12    26    1
    27    13    14    2
    28    13    15   am
    29    15    16    1
    30    15    40    1
    31    16    24   ar
    32    16    17   ar
    33    17    18   ar
    34    17    41    1
    35    18    19    1
    36    18    20   ar
    37    19    42    1
    38    19    43    1
    39    19    44    1
    40    20    21    1
    41    20    23   ar
    42    21    22    1
    43    22    45    1
    44    22    46    1
    45    22    47    1
    46    23    24   ar
    47    23    48    1
    48    24    25    1
    49    26    27    1
    50    27    28   ar
@<TRIPOS>SUBSTRUCTURE
     1 ZINC000426037318        1 TEMP              0 ****  ****    0 ROOT


##########                                Name:    ZINC000794876634
##########                DOCK_Rotatable_Bonds:                   4
##########                         Heavy_Atoms:                  24
##########                    Molecular_Weight:             389.249
##########                DOCK_Rotatable_Bonds:                   4
##########                       Formal_Charge:        -4.47035e-08
##########                     HBond_Acceptors:                   5
##########                        HBond_Donors:                   0
##########                         Heavy_Atoms:                  24
##########                          Grid_Score:          -26.674772
##########                     Grid_vdw_energy:          -25.385590
##########                      Grid_es_energy:           -1.289182
##########           Internal_energy_repulsive:           16.331377

@<TRIPOS>MOLECULE
ZINC000794876634
 41 43 1 0 0
SMALL
USER_CHARGES


@<TRIPOS>ATOM
      1 C1         -8.9408    0.5135   54.0845 C.3     1  ZINC000794876634    0.0200
      2 O2         -9.3201   -0.5925   54.9061 O.3     1  ZINC000794876634   -0.3000
      3 C3         -9.0311   -0.5047   56.2300 C.ar    1  ZINC000794876634    0.1300
      4 C4         -8.3604    0.6086   56.7196 C.ar    1  ZINC000794876634   -0.1800
      5 C5         -8.0638    0.7038   58.0611 C.ar    1  ZINC000794876634   -0.0400
      6 C6         -7.3360    1.9135   58.5882 C.3     1  ZINC000794876634   -0.1200
      7 C7         -8.4393   -0.3246   58.9355 C.ar    1  ZINC000794876634   -0.1000
      8 C8         -8.1255   -0.2265   60.3639 C.2     1  ZINC000794876634    0.0600
      9 C9         -9.0719    0.2178   61.2415 C.2     1  ZINC000794876634   -0.1700
     10 C10       -10.4504    0.6391   60.9382 C.2     1  ZINC000794876634    0.5700
     11 O11       -10.9680    0.6557   59.8364 O.2     1  ZINC000794876634   -0.4900
     12 N12       -11.0360    1.0012   62.0919 N.am    1  ZINC000794876634   -0.5300
     13 C13       -12.4160    1.4810   62.2002 C.3     1  ZINC000794876634    0.0800
     14 C14       -10.1721    0.8637   63.1674 C.ar    1  ZINC000794876634    0.3700
     15 N15       -10.3359    1.1039   64.4624 N.ar    1  ZINC000794876634   -0.4900
     16 C16        -9.3699    0.9031   65.3357 C.ar    1  ZINC000794876634    0.1800
     17 C17        -8.1296    0.4295   64.9466 C.ar    1  ZINC000794876634   -0.1800
     18 Br18       -6.7653    0.1519   66.2263 Br      1  ZINC000794876634   -0.0200
     19 C19        -7.9002    0.1605   63.6050 C.ar    1  ZINC000794876634    0.0000
     20 C20        -8.9400    0.3757   62.7066 C.ar    1  ZINC000794876634   -0.1400
     21 C21        -9.1166   -1.4476   58.4396 C.ar    1  ZINC000794876634   -0.1400
     22 C22        -9.4137   -1.5308   57.0948 C.ar    1  ZINC000794876634    0.0900
     23 O23       -10.0710   -2.6183   56.6101 O.3     1  ZINC000794876634   -0.3000
     24 C24       -10.5603   -3.5603   57.5668 C.3     1  ZINC000794876634    0.0200
     25 H25        -9.2290    0.3150   53.0523 H       1  ZINC000794876634    0.1000
     26 H26        -9.4430    1.4153   54.4349 H       1  ZINC000794876634    0.0600
     27 H27        -7.8613    0.6539   54.1400 H       1  ZINC000794876634    0.0600
     28 H28        -8.0706    1.4017   56.0463 H       1  ZINC000794876634    0.1400
     29 H29        -8.0599    2.6740   58.8810 H       1  ZINC000794876634    0.0800
     30 H30        -6.7376    1.6290   59.4537 H       1  ZINC000794876634    0.0700
     31 H31        -6.6840    2.3125   57.8111 H       1  ZINC000794876634    0.0700
     32 H32        -7.1457   -0.5055   60.7219 H       1  ZINC000794876634    0.1500
     33 H33       -12.8746    1.4942   61.2115 H       1  ZINC000794876634    0.0900
     34 H34       -12.9813    0.8169   62.8541 H       1  ZINC000794876634    0.0800
     35 H35       -12.4188    2.4887   62.6156 H       1  ZINC000794876634    0.0800
     36 H36        -9.5504    1.1135   66.3796 H       1  ZINC000794876634    0.1800
     37 H37        -6.9431   -0.2097   63.2684 H       1  ZINC000794876634    0.1600
     38 H38        -9.4085   -2.2433   59.1090 H       1  ZINC000794876634    0.1400
     39 H39        -9.7198   -4.0180   58.0886 H       1  ZINC000794876634    0.0500
     40 H40       -11.1997   -3.0488   58.2862 H       1  ZINC000794876634    0.0600
     41 H41       -11.1345   -4.3327   57.0553 H       1  ZINC000794876634    0.1100
@<TRIPOS>BOND
     1     1     2    1
     2     1    25    1
     3     1    26    1
     4     1    27    1
     5     2     3    1
     6     3    22   ar
     7     3     4   ar
     8     4     5   ar
     9     4    28    1
    10     5     6    1
    11     5     7   ar
    12     6    29    1
    13     6    30    1
    14     6    31    1
    15     7     8    1
    16     7    21   ar
    17     8     9    2
    18     8    32    1
    19     9    20    1
    20     9    10    1
    21    10    11    2
    22    10    12   am
    23    12    13    1
    24    12    14    1
    25    13    33    1
    26    13    34    1
    27    13    35    1
    28    14    20   ar
    29    14    15   ar
    30    15    16   ar
    31    16    17   ar
    32    16    36    1
    33    17    18    1
    34    17    19   ar
    35    19    20   ar
    36    19    37    1
    37    21    22   ar
    38    21    38    1
    39    22    23    1
    40    23    24    1
    41    24    39    1
    42    24    40    1
    43    24    41    1
@<TRIPOS>SUBSTRUCTURE
     1 ZINC000794876634        1 TEMP              0 ****  ****    0 ROOT


##########                                Name:    ZINC000611836474
##########                DOCK_Rotatable_Bonds:                   7
##########                         Heavy_Atoms:                  22
##########                    Molecular_Weight:             366.258
##########                DOCK_Rotatable_Bonds:                   7
##########                       Formal_Charge:          -0.0300004
##########                     HBond_Acceptors:                   5
##########                        HBond_Donors:                   1
##########                         Heavy_Atoms:                  22
##########                          Grid_Score:          -26.648817
##########                     Grid_vdw_energy:          -25.461725
##########                      Grid_es_energy:           -1.187092
##########           Internal_energy_repulsive:            9.226092

@<TRIPOS>MOLECULE
ZINC000611836474
 42 43 1 0 0
SMALL
USER_CHARGES


@<TRIPOS>ATOM
      1 C1          1.4275    2.3082   47.6143 C.3     1  ZINC000611836474   -0.1500
      2 C2          0.8545    1.3533   48.6636 C.3     1  ZINC000611836474   -0.1400
      3 C3          0.0116    0.2806   47.9708 C.3     1  ZINC000611836474    0.1300
      4 N4         -1.1522    0.9068   47.3388 N.pl3   1  ZINC000611836474   -0.3900
      5 N5         -1.3774    1.0263   45.9614 N.2     1  ZINC000611836474   -0.2900
      6 C6         -2.5187    1.6404   45.7819 C.2     1  ZINC000611836474    0.0600
      7 C7         -3.0616    1.9343   47.0357 C.2     1  ZINC000611836474   -0.2800
      8 C8         -2.2021    1.4667   47.9819 C.2     1  ZINC000611836474    0.3000
      9 N9         -2.3696    1.5560   49.3637 N.am    1  ZINC000611836474   -0.6500
     10 C10        -2.4347    2.7641   49.9578 C.2     1  ZINC000611836474    0.5200
     11 O11        -2.3491    3.7735   49.2908 O.2     1  ZINC000611836474   -0.4700
     12 C12        -2.6138    2.8606   51.4510 C.3     1  ZINC000611836474    0.0700
     13 H13        -3.0946    3.8069   51.6988 H       1  ZINC000611836474    0.1100
     14 C14        -1.2470    2.7886   52.1345 C.3     1  ZINC000611836474   -0.1800
     15 O15        -3.4303    1.7786   51.9037 O.3     1  ZINC000611836474   -0.2700
     16 C16        -4.5084    2.0968   52.6677 C.ar    1  ZINC000611836474    0.1500
     17 C17        -4.3370    2.4533   53.9968 C.ar    1  ZINC000611836474   -0.2000
     18 C18        -5.4346    2.7763   54.7717 C.ar    1  ZINC000611836474   -0.0600
     19 C19        -6.7032    2.7439   54.2234 C.ar    1  ZINC000611836474   -0.1100
     20 C20        -7.8983    3.0963   55.0713 C.3     1  ZINC000611836474   -0.1100
     21 C21        -6.8776    2.3894   52.8983 C.ar    1  ZINC000611836474   -0.0500
     22 C22        -5.7828    2.0710   52.1173 C.ar    1  ZINC000611836474   -0.1200
     23 Br23       -6.0214    1.5860   50.3053 Br      1  ZINC000611836474   -0.0300
     24 H24         2.0279    3.0724   48.1079 H       1  ZINC000611836474    0.0600
     25 H25         2.0519    1.7495   46.9171 H       1  ZINC000611836474    0.0600
     26 H26         0.6107    2.7828   47.0706 H       1  ZINC000611836474    0.0600
     27 H27         1.6712    0.8787   49.2074 H       1  ZINC000611836474    0.0800
     28 H28         0.2301    1.9119   49.3608 H       1  ZINC000611836474    0.0600
     29 H29         0.6126   -0.2193   47.2112 H       1  ZINC000611836474    0.0800
     30 H30        -0.3238   -0.4496   48.7074 H       1  ZINC000611836474    0.1000
     31 H31        -2.9647    1.8799   44.8279 H       1  ZINC000611836474    0.1900
     32 H32        -3.9981    2.4392   47.2209 H       1  ZINC000611836474    0.1700
     33 H33        -2.4393    0.7488   49.8970 H       1  ZINC000611836474    0.4100
     34 H34        -0.6243    3.6139   51.7892 H       1  ZINC000611836474    0.0800
     35 H35        -1.3767    2.8584   53.2145 H       1  ZINC000611836474    0.0800
     36 H36        -0.7662    1.8423   51.8867 H       1  ZINC000611836474    0.0800
     37 H37        -3.3462    2.4781   54.4262 H       1  ZINC000611836474    0.1400
     38 H38        -5.3013    3.0540   55.8068 H       1  ZINC000611836474    0.1300
     39 H39        -8.0920    4.1666   54.9993 H       1  ZINC000611836474    0.0700
     40 H40        -8.7695    2.5447   54.7182 H       1  ZINC000611836474    0.0700
     41 H41        -7.6975    2.8325   56.1097 H       1  ZINC000611836474    0.0700
     42 H42        -7.8697    2.3648   52.4722 H       1  ZINC000611836474    0.1400
@<TRIPOS>BOND
     1     1     2    1
     2     1    24    1
     3     1    25    1
     4     1    26    1
     5     2     3    1
     6     2    27    1
     7     2    28    1
     8     3     4    1
     9     3    29    1
    10     3    30    1
    11     4     8    1
    12     4     5    1
    13     5     6    2
    14     6     7    1
    15     6    31    1
    16     7     8    2
    17     7    32    1
    18     8     9    1
    19     9    10   am
    20     9    33    1
    21    10    11    2
    22    10    12    1
    23    12    13    1
    24    12    14    1
    25    12    15    1
    26    14    34    1
    27    14    35    1
    28    14    36    1
    29    15    16    1
    30    16    22   ar
    31    16    17   ar
    32    17    18   ar
    33    17    37    1
    34    18    19   ar
    35    18    38    1
    36    19    20    1
    37    19    21   ar
    38    20    39    1
    39    20    40    1
    40    20    41    1
    41    21    22   ar
    42    21    42    1
    43    22    23    1
@<TRIPOS>SUBSTRUCTURE
     1 ZINC000611836474        1 TEMP              0 ****  ****    0 ROOT


##########                                Name:    ZINC000191003171
##########                DOCK_Rotatable_Bonds:                   6
##########                         Heavy_Atoms:                  26
##########                    Molecular_Weight:             389.414
##########                DOCK_Rotatable_Bonds:                   6
##########                       Formal_Charge:          -0.0200002
##########                     HBond_Acceptors:                   8
##########                        HBond_Donors:                   1
##########                         Heavy_Atoms:                  26
##########                          Grid_Score:          -26.610792
##########                     Grid_vdw_energy:          -26.475204
##########                      Grid_es_energy:           -0.135588
##########           Internal_energy_repulsive:           15.623425

@<TRIPOS>MOLECULE
ZINC000191003171
 45 46 1 0 0
SMALL
USER_CHARGES


@<TRIPOS>ATOM
      1 C1         -9.2201   -1.0371   59.8359 C.3     1  ZINC000191003171   -0.1200
      2 C2        -10.3430   -1.5699   58.9835 C.ar    1  ZINC000191003171   -0.0800
      3 C3        -11.5612   -1.8779   59.5590 C.ar    1  ZINC000191003171   -0.0700
      4 C4        -12.5913   -2.3667   58.7770 C.ar    1  ZINC000191003171   -0.1800
      5 C5        -13.9195   -2.7030   59.4046 C.3     1  ZINC000191003171    0.5100
      6 F6        -14.7776   -1.6032   59.2977 F       1  ZINC000191003171   -0.1800
      7 F7        -14.4829   -3.8000   58.7441 F       1  ZINC000191003171   -0.1800
      8 F8        -13.7310   -3.0179   60.7547 F       1  ZINC000191003171   -0.1800
      9 C9        -12.4031   -2.5465   57.4196 C.ar    1  ZINC000191003171   -0.0800
     10 C10       -11.1846   -2.2380   56.8438 C.ar    1  ZINC000191003171   -0.1000
     11 C11       -10.1562   -1.7453   57.6249 C.ar    1  ZINC000191003171   -0.0500
     12 C12        -8.8280   -1.4090   56.9973 C.3     1  ZINC000191003171    0.0900
     13 N13        -9.0392   -0.9615   55.6142 N.3     1  ZINC000191003171   -0.6800
     14 C14        -9.0129    0.5046   55.5254 C.3     1  ZINC000191003171    0.1200
     15 H15        -8.5036    0.9125   56.3986 H       1  ZINC000191003171    0.0600
     16 C16       -10.4460    1.0383   55.4755 C.3     1  ZINC000191003171   -0.1400
     17 C17        -8.2787    0.9192   54.2765 C.ar    1  ZINC000191003171   -0.0100
     18 C18        -8.7007    0.4608   53.0426 C.ar    1  ZINC000191003171   -0.1300
     19 C19        -8.0280    0.8403   51.8958 C.ar    1  ZINC000191003171    0.0100
     20 C20        -6.9328    1.6785   51.9820 C.ar    1  ZINC000191003171   -0.7000
     21 S21        -6.0759    2.1619   50.5203 S.o2    1  ZINC000191003171    2.5000
     22 C22        -4.4077    1.4799   50.7270 C.3     1  ZINC000191003171   -0.6500
     23 O23        -6.7628    1.4905   49.4731 O.2     1  ZINC000191003171   -0.9300
     24 O24        -6.0459    3.5811   50.5847 O.2     1  ZINC000191003171   -0.9300
     25 C25        -6.5094    2.1388   53.2175 C.ar    1  ZINC000191003171    0.1900
     26 F26        -5.4388    2.9584   53.3030 F       1  ZINC000191003171   -0.1200
     27 C27        -7.1869    1.7623   54.3646 C.ar    1  ZINC000191003171   -0.1700
     28 H28        -9.2765    0.0508   59.8725 H       1  ZINC000191003171    0.0800
     29 H29        -9.3076   -1.4396   60.8451 H       1  ZINC000191003171    0.0800
     30 H30        -8.2642   -1.3371   59.4066 H       1  ZINC000191003171    0.0600
     31 H31       -11.7084   -1.7370   60.6196 H       1  ZINC000191003171    0.1400
     32 H32       -13.2077   -2.9284   56.8088 H       1  ZINC000191003171    0.1400
     33 H33       -11.0374   -2.3788   55.7832 H       1  ZINC000191003171    0.1400
     34 H34        -8.3478   -0.6137   57.5672 H       1  ZINC000191003171    0.0900
     35 H35        -8.1907   -2.2934   56.9997 H       1  ZINC000191003171    0.0500
     36 H36        -8.3592   -1.3736   54.9929 H       1  ZINC000191003171    0.3500
     37 H37       -10.4265    2.1261   55.4097 H       1  ZINC000191003171    0.0600
     38 H38       -10.9553    0.6305   54.6023 H       1  ZINC000191003171    0.0700
     39 H39       -10.9770    0.7384   56.3789 H       1  ZINC000191003171    0.0600
     40 H40        -9.5563   -0.1947   52.9743 H       1  ZINC000191003171    0.1500
     41 H41        -8.3584    0.4813   50.9323 H       1  ZINC000191003171    0.1600
     42 H42        -4.4678    0.3959   50.8238 H       1  ZINC000191003171    0.1300
     43 H43        -3.8010    1.7339   49.8579 H       1  ZINC000191003171    0.1400
     44 H44        -3.9520    1.9000   51.6237 H       1  ZINC000191003171    0.1300
     45 H45        -6.8578    2.1210   55.3286 H       1  ZINC000191003171    0.1500
@<TRIPOS>BOND
     1     1     2    1
     2     1    28    1
     3     1    29    1
     4     1    30    1
     5     2    11   ar
     6     2     3   ar
     7     3     4   ar
     8     3    31    1
     9     4     5    1
    10     4     9   ar
    11     5     6    1
    12     5     7    1
    13     5     8    1
    14     9    10   ar
    15     9    32    1
    16    10    11   ar
    17    10    33    1
    18    11    12    1
    19    12    13    1
    20    12    34    1
    21    12    35    1
    22    13    14    1
    23    13    36    1
    24    14    15    1
    25    14    16    1
    26    14    17    1
    27    16    37    1
    28    16    38    1
    29    16    39    1
    30    17    27   ar
    31    17    18   ar
    32    18    19   ar
    33    18    40    1
    34    19    20   ar
    35    19    41    1
    36    20    21    1
    37    20    25   ar
    38    21    22    1
    39    21    23    2
    40    21    24    2
    41    22    42    1
    42    22    43    1
    43    22    44    1
    44    25    26    1
    45    25    27   ar
    46    27    45    1
@<TRIPOS>SUBSTRUCTURE
     1 ZINC000191003171        1 TEMP              0 ****  ****    0 ROOT


##########                                Name:    ZINC000560467340
##########                DOCK_Rotatable_Bonds:                   7
##########                         Heavy_Atoms:                  24
##########                    Molecular_Weight:             369.481
##########                DOCK_Rotatable_Bonds:                   7
##########                       Formal_Charge:          -0.0199997
##########                     HBond_Acceptors:                   7
##########                        HBond_Donors:                   2
##########                         Heavy_Atoms:                  24
##########                          Grid_Score:          -26.579361
##########                     Grid_vdw_energy:          -28.039265
##########                      Grid_es_energy:            1.459904
##########           Internal_energy_repulsive:           19.357508

@<TRIPOS>MOLECULE
ZINC000560467340
 44 46 1 0 0
SMALL
USER_CHARGES


@<TRIPOS>ATOM
      1 O1         -7.7922   -0.6335   60.9329 O.2     1  ZINC000560467340   -0.9600
      2 S2         -8.6365    0.5096   60.9399 S.o2    1  ZINC000560467340    2.7100
      3 O3         -8.1748    1.8188   60.6366 O.2     1  ZINC000560467340   -0.9500
      4 N4         -9.8659    0.1894   59.8777 N.am    1  ZINC000560467340   -1.0900
      5 C5        -10.6552   -1.0367   60.0188 C.3     1  ZINC000560467340    0.1400
      6 C6        -11.5976   -1.1773   58.8217 C.3     1  ZINC000560467340   -0.0500
      7 C7        -10.7894   -1.4066   57.5430 C.3     1  ZINC000560467340   -0.0700
      8 C8         -9.6050   -2.2871   57.8485 C.ar    1  ZINC000560467340   -0.0900
      9 C9         -9.7732   -3.6539   57.9685 C.ar    1  ZINC000560467340   -0.0900
     10 C10        -8.6878   -4.4623   58.2486 C.ar    1  ZINC000560467340   -0.1500
     11 C11        -7.4315   -3.9026   58.4087 C.ar    1  ZINC000560467340    0.1000
     12 F12        -6.3697   -4.6919   58.6821 F       1  ZINC000560467340   -0.1400
     13 C13        -7.2642   -2.5335   58.2879 C.ar    1  ZINC000560467340   -0.1500
     14 C14        -8.3502   -1.7277   58.0030 C.ar    1  ZINC000560467340   -0.0900
     15 C15       -12.4645    0.0908   58.6798 C.3     1  ZINC000560467340   -0.1300
     16 C16       -13.8460   -0.4425   58.2258 C.3     1  ZINC000560467340   -0.1200
     17 C17       -13.9903   -1.7534   59.0380 C.3     1  ZINC000560467340   -0.1600
     18 C18       -12.5676   -2.3498   59.0495 C.3     1  ZINC000560467340    0.1100
     19 H19       -12.4633   -3.0817   58.2486 H       1  ZINC000560467340    0.0600
     20 O20       -12.3051   -2.9655   60.3121 O.3     1  ZINC000560467340   -0.5500
     21 C21        -9.3471    0.5932   62.5501 C.2     1  ZINC000560467340   -0.6900
     22 C22        -8.6795    0.2363   63.6484 C.2     1  ZINC000560467340   -0.1000
     23 S23        -9.7059    0.4546   65.0598 S.3     1  ZINC000560467340    0.1500
     24 C24       -11.0230    1.0356   64.0491 C.2     1  ZINC000560467340   -0.2200
     25 C25       -10.6383    1.0398   62.7720 C.2     1  ZINC000560467340   -0.0700
     26 H26       -10.0634    0.8136   59.1621 H       1  ZINC000560467340    0.4200
     27 H27        -9.9867   -1.8967   60.0580 H       1  ZINC000560467340    0.0600
     28 H28       -11.2397   -0.9887   60.9377 H       1  ZINC000560467340    0.0800
     29 H29       -11.4193   -1.8910   56.7969 H       1  ZINC000560467340    0.0800
     30 H30       -10.4401   -0.4489   57.1573 H       1  ZINC000560467340    0.0800
     31 H31       -10.7532   -4.0902   57.8436 H       1  ZINC000560467340    0.1300
     32 H32        -8.8195   -5.5300   58.3430 H       1  ZINC000560467340    0.1400
     33 H33        -6.2848   -2.0958   58.4129 H       1  ZINC000560467340    0.1400
     34 H34        -8.2199   -0.6597   57.9084 H       1  ZINC000560467340    0.1300
     35 H35       -12.5498    0.6038   59.6379 H       1  ZINC000560467340    0.0700
     36 H36       -12.0459    0.7567   57.9253 H       1  ZINC000560467340    0.0800
     37 H37       -14.6364    0.2618   58.4854 H       1  ZINC000560467340    0.0700
     38 H38       -13.8477   -0.6491   57.1556 H       1  ZINC000560467340    0.0700
     39 H39       -14.3219   -1.5382   60.0538 H       1  ZINC000560467340    0.0800
     40 H40       -14.6851   -2.4333   58.5449 H       1  ZINC000560467340    0.0700
     41 H41       -11.5125   -3.5193   60.3223 H       1  ZINC000560467340    0.3800
     42 H42        -7.6640   -0.1310   63.6679 H       1  ZINC000560467340    0.1800
     43 H43       -11.9931    1.3458   64.4083 H       1  ZINC000560467340    0.1700
     44 H44       -11.2879    1.3600   61.9707 H       1  ZINC000560467340    0.1500
@<TRIPOS>BOND
     1     1     2    2
     2     2     3    2
     3     2     4   am
     4     2    21    1
     5     4     5    1
     6     4    26    1
     7     5     6    1
     8     5    27    1
     9     5    28    1
    10     6    18    1
    11     6     7    1
    12     6    15    1
    13     7     8    1
    14     7    29    1
    15     7    30    1
    16     8    14   ar
    17     8     9   ar
    18     9    10   ar
    19     9    31    1
    20    10    11   ar
    21    10    32    1
    22    11    12    1
    23    11    13   ar
    24    13    14   ar
    25    13    33    1
    26    14    34    1
    27    15    16    1
    28    15    35    1
    29    15    36    1
    30    16    17    1
    31    16    37    1
    32    16    38    1
    33    17    18    1
    34    17    39    1
    35    17    40    1
    36    18    19    1
    37    18    20    1
    38    20    41    1
    39    21    25    1
    40    21    22    2
    41    22    23    1
    42    22    42    1
    43    23    24    1
    44    24    25    2
    45    24    43    1
    46    25    44    1
@<TRIPOS>SUBSTRUCTURE
     1 ZINC000560467340        1 TEMP              0 ****  ****    0 ROOT


##########                                Name:    ZINC000302023461
##########                DOCK_Rotatable_Bonds:                   3
##########                         Heavy_Atoms:                  25
##########                    Molecular_Weight:             356.362
##########                DOCK_Rotatable_Bonds:                   3
##########                       Formal_Charge:        -2.08616e-07
##########                     HBond_Acceptors:                   9
##########                        HBond_Donors:                   1
##########                         Heavy_Atoms:                  25
##########                          Grid_Score:          -26.572063
##########                     Grid_vdw_energy:          -26.093954
##########                      Grid_es_energy:           -0.478109
##########           Internal_energy_repulsive:           19.582479

@<TRIPOS>MOLECULE
ZINC000302023461
 37 40 1 0 0
SMALL
USER_CHARGES


@<TRIPOS>ATOM
      1 O1        -11.8812   -2.9444   58.7814 O.2     1  ZINC000302023461   -0.1600
      2 N2        -10.9110   -2.2269   58.9478 N.pl3   1  ZINC000302023461    0.0200
      3 O3        -11.0595   -1.0829   59.3386 O.2     1  ZINC000302023461   -0.1300
      4 C4         -9.5512   -2.7475   58.6811 C.ar    1  ZINC000302023461    0.0000
      5 C5         -9.3818   -4.0441   58.2382 C.ar    1  ZINC000302023461   -0.0600
      6 C6         -8.1115   -4.5312   57.9887 C.ar    1  ZINC000302023461   -0.0900
      7 C7         -7.0069   -3.7220   58.1814 C.ar    1  ZINC000302023461   -0.0800
      8 C8         -7.1686   -2.4239   58.6242 C.ar    1  ZINC000302023461   -0.0500
      9 C9         -8.4435   -1.9295   58.8708 C.ar    1  ZINC000302023461   -0.1100
     10 S10        -8.6548   -0.2738   59.4353 S.3     1  ZINC000302023461    0.1900
     11 C11        -8.8950    0.6271   57.9404 C.2     1  ZINC000302023461    0.2100
     12 N12        -9.6575    1.6875   57.8036 N.2     1  ZINC000302023461   -0.3200
     13 N13        -9.5643    2.0884   56.4609 N.pl3   1  ZINC000302023461   -0.4700
     14 C14        -8.7253    1.2152   55.8593 C.2     1  ZINC000302023461    0.3500
     15 C15        -8.3204    1.2370   54.4372 C.ar    1  ZINC000302023461   -0.0400
     16 C16        -8.8879    0.3373   53.5344 C.ar    1  ZINC000302023461   -0.0900
     17 C17        -8.5071    0.3585   52.2093 C.ar    1  ZINC000302023461   -0.1100
     18 C18        -7.5597    1.2726   51.7680 C.ar    1  ZINC000302023461    0.0800
     19 O19        -7.1928    1.2699   50.4576 O.3     1  ZINC000302023461   -0.3000
     20 C20        -6.5206    2.4379   49.9744 C.3     1  ZINC000302023461    0.0200
     21 C21        -5.4337    2.8211   50.9876 C.3     1  ZINC000302023461    0.0200
     22 O22        -6.0655    3.0806   52.2459 O.3     1  ZINC000302023461   -0.3000
     23 C23        -6.9922    2.1749   52.6632 C.ar    1  ZINC000302023461    0.0500
     24 C24        -7.3737    2.1611   53.9933 C.ar    1  ZINC000302023461   -0.0500
     25 N25        -8.3269    0.3450   56.7660 N.2     1  ZINC000302023461   -0.5000
     26 H26       -10.2424   -4.6788   58.0867 H       1  ZINC000302023461    0.1600
     27 H27        -7.9820   -5.5461   57.6430 H       1  ZINC000302023461    0.1500
     28 H28        -6.0165   -4.1056   57.9855 H       1  ZINC000302023461    0.1500
     29 H29        -6.3054   -1.7926   58.7751 H       1  ZINC000302023461    0.1600
     30 H30       -10.0132    2.8423   56.0471 H       1  ZINC000302023461    0.4400
     31 H31        -9.6248   -0.3758   53.8735 H       1  ZINC000302023461    0.1300
     32 H32        -8.9475   -0.3389   51.5119 H       1  ZINC000302023461    0.1500
     33 H33        -6.0638    2.2257   49.0078 H       1  ZINC000302023461    0.1300
     34 H34        -7.2334    3.2564   49.8728 H       1  ZINC000302023461    0.0800
     35 H35        -4.7249    1.9998   51.0947 H       1  ZINC000302023461    0.0800
     36 H36        -4.9121    3.7154   50.6467 H       1  ZINC000302023461    0.1300
     37 H37        -6.9359    2.8624   54.6882 H       1  ZINC000302023461    0.1600
@<TRIPOS>BOND
     1     1     2    2
     2     2     3    2
     3     2     4    1
     4     4     9   ar
     5     4     5   ar
     6     5     6   ar
     7     5    26    1
     8     6     7   ar
     9     6    27    1
    10     7     8   ar
    11     7    28    1
    12     8     9   ar
    13     8    29    1
    14     9    10    1
    15    10    11    1
    16    11    25    1
    17    11    12    2
    18    12    13    1
    19    13    14    1
    20    13    30    1
    21    14    15    1
    22    14    25    2
    23    15    24   ar
    24    15    16   ar
    25    16    17   ar
    26    16    31    1
    27    17    18   ar
    28    17    32    1
    29    18    23   ar
    30    18    19    1
    31    19    20    1
    32    20    21    1
    33    20    33    1
    34    20    34    1
    35    21    22    1
    36    21    35    1
    37    21    36    1
    38    22    23    1
    39    23    24   ar
    40    24    37    1
@<TRIPOS>SUBSTRUCTURE
     1 ZINC000302023461        1 TEMP              0 ****  ****    0 ROOT


##########                                Name:    ZINC000797321835
##########                DOCK_Rotatable_Bonds:                   4
##########                         Heavy_Atoms:                  22
##########                    Molecular_Weight:             381.253
##########                DOCK_Rotatable_Bonds:                   4
##########                       Formal_Charge:           0.0200001
##########                     HBond_Acceptors:                   7
##########                        HBond_Donors:                   1
##########                         Heavy_Atoms:                  22
##########                          Grid_Score:          -26.535099
##########                     Grid_vdw_energy:          -25.418831
##########                      Grid_es_energy:           -1.116269
##########           Internal_energy_repulsive:            3.461305

@<TRIPOS>MOLECULE
ZINC000797321835
 35 37 1 0 0
SMALL
USER_CHARGES


@<TRIPOS>ATOM
      1 C1        -11.4608   -1.7629   59.3219 C.3     1  ZINC000797321835    0.1000
      2 N2        -12.6988   -2.2299   58.6931 N.am    1  ZINC000797321835   -0.6000
      3 C3        -13.8835   -2.3161   59.3224 C.2     1  ZINC000797321835    0.5200
      4 O4        -14.0754   -2.0265   60.4844 O.2     1  ZINC000797321835   -0.5200
      5 C5        -14.9425   -2.8263   58.3703 C.3     1  ZINC000797321835   -0.1500
      6 C6        -14.3148   -2.6395   56.9695 C.3     1  ZINC000797321835   -0.1200
      7 C7        -12.8063   -2.6581   57.2934 C.3     1  ZINC000797321835    0.1200
      8 H8        -12.4089   -3.6669   57.1823 H       1  ZINC000797321835    0.1100
      9 C9        -12.0672   -1.7049   56.3899 C.2     1  ZINC000797321835    0.4900
     10 O10       -12.0718   -0.5159   56.6289 O.2     1  ZINC000797321835   -0.4400
     11 N11       -11.4010   -2.1739   55.3162 N.am    1  ZINC000797321835   -0.6500
     12 C12       -10.7169   -1.2917   54.4801 C.ar    1  ZINC000797321835    0.3000
     13 C13       -11.4011   -0.6166   53.4685 C.ar    1  ZINC000797321835   -0.1400
     14 C14       -10.6830    0.2489   52.6635 C.ar    1  ZINC000797321835   -0.0800
     15 C15        -9.3120    0.3935   52.9143 C.ar    1  ZINC000797321835    0.1100
     16 C16        -8.4988    1.3051   52.0845 C.2     1  ZINC000797321835   -0.1400
     17 C17        -8.7754    2.6051   51.8561 C.2     1  ZINC000797321835   -0.0900
     18 C18        -7.8673    3.2542   51.0465 C.2     1  ZINC000797321835   -0.0900
     19 C19        -6.8534    2.4971   50.6124 C.2     1  ZINC000797321835   -0.2000
     20 Br20       -5.4523    3.0940   49.4913 Br      1  ZINC000797321835    0.0200
     21 S21        -7.0159    0.8652   51.2473 S.3     1  ZINC000797321835    0.1900
     22 N22        -8.7468   -0.2924   53.9019 N.ar    1  ZINC000797321835   -0.1900
     23 N23        -9.4190   -1.0905   54.6493 N.ar    1  ZINC000797321835   -0.2200
     24 H24       -11.3764   -0.6829   59.2001 H       1  ZINC000797321835    0.0700
     25 H25       -11.4775   -2.0085   60.3837 H       1  ZINC000797321835    0.0800
     26 H26       -10.6074   -2.2495   58.8497 H       1  ZINC000797321835    0.0700
     27 H27       -15.1490   -3.8799   58.5584 H       1  ZINC000797321835    0.1100
     28 H28       -15.8541   -2.2358   58.4616 H       1  ZINC000797321835    0.1100
     29 H29       -14.5846   -3.4630   56.3082 H       1  ZINC000797321835    0.1100
     30 H30       -14.6051   -1.6823   56.5365 H       1  ZINC000797321835    0.0900
     31 H31       -11.3972   -3.1248   55.1251 H       1  ZINC000797321835    0.4200
     32 H32       -12.4602   -0.7656   53.3185 H       1  ZINC000797321835    0.1600
     33 H33       -11.1639    0.7959   51.8661 H       1  ZINC000797321835    0.1500
     34 H34        -9.6402    3.0989   52.2743 H       1  ZINC000797321835    0.1600
     35 H35        -7.9674    4.2965   50.7822 H       1  ZINC000797321835    0.1600
@<TRIPOS>BOND
     1     1     2    1
     2     1    24    1
     3     1    25    1
     4     1    26    1
     5     2     7    1
     6     2     3   am
     7     3     4    2
     8     3     5    1
     9     5     6    1
    10     5    27    1
    11     5    28    1
    12     6     7    1
    13     6    29    1
    14     6    30    1
    15     7     8    1
    16     7     9    1
    17     9    10    2
    18     9    11   am
    19    11    12    1
    20    11    31    1
    21    12    23   ar
    22    12    13   ar
    23    13    14   ar
    24    13    32    1
    25    14    15   ar
    26    14    33    1
    27    15    16    1
    28    15    22   ar
    29    16    21    1
    30    16    17    2
    31    17    18    1
    32    17    34    1
    33    18    19    2
    34    18    35    1
    35    19    20    1
    36    19    21    1
    37    22    23   ar
@<TRIPOS>SUBSTRUCTURE
     1 ZINC000797321835        1 TEMP              0 ****  ****    0 ROOT


##########                                Name:    ZINC000965273005
##########                DOCK_Rotatable_Bonds:                   7
##########                         Heavy_Atoms:                  27
##########                    Molecular_Weight:             368.436
##########                DOCK_Rotatable_Bonds:                   7
##########                       Formal_Charge:           0.0100003
##########                     HBond_Acceptors:                   7
##########                        HBond_Donors:                   2
##########                         Heavy_Atoms:                  27
##########                          Grid_Score:          -26.472103
##########                     Grid_vdw_energy:          -26.715990
##########                      Grid_es_energy:            0.243887
##########           Internal_energy_repulsive:            8.852010

@<TRIPOS>MOLECULE
ZINC000965273005
 51 54 1 0 0
SMALL
USER_CHARGES


@<TRIPOS>ATOM
      1 C1        -13.3982   -2.5227   59.3147 C.3     1  ZINC000965273005   -0.1200
      2 C2        -13.5721   -1.8885   57.9588 C.ar    1  ZINC000965273005   -0.0300
      3 C3        -14.6887   -1.1240   57.6913 C.ar    1  ZINC000965273005   -0.1200
      4 C4        -14.8499   -0.5410   56.4468 C.ar    1  ZINC000965273005   -0.0900
      5 C5        -13.8937   -0.7199   55.4632 C.ar    1  ZINC000965273005   -0.1300
      6 C6        -12.7721   -1.4822   55.7176 C.ar    1  ZINC000965273005   -0.0900
      7 C7        -12.6008   -2.0687   56.9724 C.ar    1  ZINC000965273005   -0.1300
      8 C8        -11.4015   -2.8869   57.2520 C.2     1  ZINC000965273005    0.5800
      9 O9        -11.4903   -4.0981   57.3020 O.2     1  ZINC000965273005   -0.5200
     10 N10       -10.2100   -2.2896   57.4517 N.am    1  ZINC000965273005   -0.6100
     11 C11        -9.9622   -0.8365   57.4261 C.3     1  ZINC000965273005    0.0900
     12 C12        -8.6898   -0.6360   58.2865 C.3     1  ZINC000965273005    0.1500
     13 H13        -8.1654    0.2762   58.0018 H       1  ZINC000965273005    0.1200
     14 N14        -9.0175   -0.6261   59.7144 N.am    1  ZINC000965273005   -0.7100
     15 C15        -9.0438    0.5388   60.3916 C.2     1  ZINC000965273005    0.6000
     16 O16        -8.7939    1.5816   59.8179 O.2     1  ZINC000965273005   -0.5400
     17 C17        -9.3752    0.5490   61.8281 C.2     1  ZINC000965273005   -0.2800
     18 C18        -8.6032    0.0358   62.8509 C.2     1  ZINC000965273005    0.1000
     19 N19        -9.2649    0.2485   63.9996 N.pl3   1  ZINC000965273005   -0.3600
     20 C20        -8.8058   -0.1376   65.3361 C.3     1  ZINC000965273005    0.1000
     21 N21       -10.4667    0.9019   63.7049 N.2     1  ZINC000965273005   -0.3000
     22 C22       -10.5399    1.0911   62.4163 C.2     1  ZINC000965273005    0.1700
     23 C23       -11.6729    1.7611   61.6825 C.3     1  ZINC000965273005   -0.0800
     24 C24       -12.9036    0.9124   61.3571 C.3     1  ZINC000965273005   -0.1700
     25 C25       -12.9786    1.9815   62.4490 C.3     1  ZINC000965273005   -0.1600
     26 C26        -7.8606   -1.8935   57.9141 C.3     1  ZINC000965273005    0.0900
     27 H27        -7.3141   -1.7337   56.9845 H       1  ZINC000965273005    0.0900
     28 O28        -6.9645   -2.2398   58.9720 O.3     1  ZINC000965273005   -0.5500
     29 C29        -8.9431   -2.9789   57.7374 C.3     1  ZINC000965273005    0.0600
     30 H30       -12.7827   -1.8773   59.9414 H       1  ZINC000965273005    0.0800
     31 H31       -14.3742   -2.6579   59.7805 H       1  ZINC000965273005    0.0700
     32 H32       -12.9117   -3.4917   59.2028 H       1  ZINC000965273005    0.0700
     33 H33       -15.4388   -0.9804   58.4549 H       1  ZINC000965273005    0.1300
     34 H34       -15.7263    0.0561   56.2423 H       1  ZINC000965273005    0.1300
     35 H35       -14.0255   -0.2621   54.4939 H       1  ZINC000965273005    0.1300
     36 H36       -12.0265   -1.6214   54.9488 H       1  ZINC000965273005    0.1300
     37 H37        -9.7864   -0.4995   56.4045 H       1  ZINC000965273005    0.0900
     38 H38       -10.8043   -0.3004   57.8637 H       1  ZINC000965273005    0.0900
     39 H39        -9.2155   -1.4580   60.1723 H       1  ZINC000965273005    0.4000
     40 H40        -7.6435   -0.4484   62.7463 H       1  ZINC000965273005    0.1800
     41 H41        -8.2232    0.6754   65.7693 H       1  ZINC000965273005    0.0800
     42 H42        -9.6676   -0.3451   65.9704 H       1  ZINC000965273005    0.1000
     43 H43        -8.1851   -1.0306   65.2631 H       1  ZINC000965273005    0.0900
     44 H44       -11.3798    2.5215   60.9586 H       1  ZINC000965273005    0.1400
     45 H45       -13.4204    1.1142   60.4188 H       1  ZINC000965273005    0.1000
     46 H46       -12.8939   -0.1306   61.6738 H       1  ZINC000965273005    0.1000
     47 H47       -13.0181    1.6419   63.4840 H       1  ZINC000965273005    0.0900
     48 H48       -13.5447    2.8867   62.2290 H       1  ZINC000965273005    0.1000
     49 H49        -6.6174   -1.4795   59.4582 H       1  ZINC000965273005    0.3900
     50 H50        -9.0326   -3.5655   58.6517 H       1  ZINC000965273005    0.0800
     51 H51        -8.6837   -3.6286   56.9014 H       1  ZINC000965273005    0.0800
@<TRIPOS>BOND
     1     1     2    1
     2     1    30    1
     3     1    31    1
     4     1    32    1
     5     2     7   ar
     6     2     3   ar
     7     3     4   ar
     8     3    33    1
     9     4     5   ar
    10     4    34    1
    11     5     6   ar
    12     5    35    1
    13     6     7   ar
    14     6    36    1
    15     7     8    1
    16     8     9    2
    17     8    10   am
    18    10    29    1
    19    10    11    1
    20    11    12    1
    21    11    37    1
    22    11    38    1
    23    12    13    1
    24    12    14    1
    25    12    26    1
    26    14    15   am
    27    14    39    1
    28    15    16    2
    29    15    17    1
    30    17    22    1
    31    17    18    2
    32    18    19    1
    33    18    40    1
    34    19    20    1
    35    19    21    1
    36    20    41    1
    37    20    42    1
    38    20    43    1
    39    21    22    2
    40    22    23    1
    41    23    25    1
    42    23    24    1
    43    23    44    1
    44    24    25    1
    45    24    45    1
    46    24    46    1
    47    25    47    1
    48    25    48    1
    49    26    27    1
    50    26    28    1
    51    26    29    1
    52    28    49    1
    53    29    50    1
    54    29    51    1
@<TRIPOS>SUBSTRUCTURE
     1 ZINC000965273005        1 TEMP              0 ****  ****    0 ROOT


##########                                Name:    ZINC000928803822
##########                DOCK_Rotatable_Bonds:                   7
##########                         Heavy_Atoms:                  21
##########                    Molecular_Weight:             364.165
##########                DOCK_Rotatable_Bonds:                   7
##########                       Formal_Charge:         -0.00999978
##########                     HBond_Acceptors:                   7
##########                        HBond_Donors:                   1
##########                         Heavy_Atoms:                  21
##########                          Grid_Score:          -26.432850
##########                     Grid_vdw_energy:          -24.949055
##########                      Grid_es_energy:           -1.483794
##########           Internal_energy_repulsive:            6.502474

@<TRIPOS>MOLECULE
ZINC000928803822
 34 34 1 0 0
SMALL
USER_CHARGES


@<TRIPOS>ATOM
      1 C1         -7.4938    1.6544   59.6479 C.3     1  ZINC000928803822    0.0900
      2 N2         -7.1115    1.1236   58.3370 N.pl3   1  ZINC000928803822   -0.6300
      3 C3         -6.2073    1.8866   57.4731 C.3     1  ZINC000928803822    0.0900
      4 C4         -7.6093   -0.1103   57.9109 C.ar    1  ZINC000928803822    0.2200
      5 C5         -7.0620   -1.2883   58.4050 C.ar    1  ZINC000928803822   -0.1500
      6 C6         -7.5514   -2.5125   57.9862 C.ar    1  ZINC000928803822   -0.0500
      7 Br7        -6.8005   -4.1099   58.6647 Br      1  ZINC000928803822   -0.0400
      8 C8         -8.5867   -2.5716   57.0745 C.ar    1  ZINC000928803822   -0.1200
      9 C9         -9.1429   -1.3937   56.5726 C.ar    1  ZINC000928803822   -0.0800
     10 C10       -10.2517   -1.4542   55.5963 C.2     1  ZINC000928803822    0.5700
     11 O11       -10.9628   -2.4386   55.5443 O.2     1  ZINC000928803822   -0.5100
     12 N12       -10.4739   -0.4178   54.7638 N.am    1  ZINC000928803822   -0.7200
     13 C13       -11.5713   -0.4784   53.7953 C.3     1  ZINC000928803822    0.1100
     14 H14       -11.7884   -1.5196   53.5569 H       1  ZINC000928803822    0.1400
     15 C15       -11.1671    0.2632   52.5196 C.3     1  ZINC000928803822   -0.0300
     16 C16        -9.7953   -0.1166   52.1449 C.1     1  ZINC000928803822    0.2000
     17 N17        -8.7365   -0.4098   51.8557 N.1     1  ZINC000928803822   -0.4000
     18 C18       -12.8168    0.1782   54.3940 C.3     1  ZINC000928803822    0.4400
     19 F19       -13.7701    0.3730   53.3888 F       1  ZINC000928803822   -0.1800
     20 F20       -13.3492   -0.6508   55.3873 F       1  ZINC000928803822   -0.1700
     21 F21       -12.4701    1.4126   54.9533 F       1  ZINC000928803822   -0.1600
     22 C22        -8.6532   -0.1596   56.9993 C.ar    1  ZINC000928803822   -0.1200
     23 H23        -8.3952    2.2588   59.5464 H       1  ZINC000928803822    0.0600
     24 H24        -7.6855    0.8282   60.3327 H       1  ZINC000928803822    0.0700
     25 H25        -6.6851    2.2712   60.0401 H       1  ZINC000928803822    0.0700
     26 H26        -5.1765    1.6032   57.6855 H       1  ZINC000928803822    0.0500
     27 H27        -6.4354    1.6723   56.4290 H       1  ZINC000928803822    0.0700
     28 H28        -6.3374    2.9522   57.6620 H       1  ZINC000928803822    0.0700
     29 H29        -6.2518   -1.2479   59.1180 H       1  ZINC000928803822    0.1400
     30 H30        -8.9660   -3.5292   56.7495 H       1  ZINC000928803822    0.1300
     31 H31        -9.9071    0.3683   54.8061 H       1  ZINC000928803822    0.4100
     32 H32       -11.8508   -0.0021   51.7130 H       1  ZINC000928803822    0.1400
     33 H33       -11.2116    1.3382   52.6946 H       1  ZINC000928803822    0.1300
     34 H34        -9.0796    0.7549   56.6143 H       1  ZINC000928803822    0.1500
@<TRIPOS>BOND
     1     1     2    1
     2     1    23    1
     3     1    24    1
     4     1    25    1
     5     2     3    1
     6     2     4    1
     7     3    26    1
     8     3    27    1
     9     3    28    1
    10     4    22   ar
    11     4     5   ar
    12     5     6   ar
    13     5    29    1
    14     6     7    1
    15     6     8   ar
    16     8     9   ar
    17     8    30    1
    18     9    10    1
    19     9    22   ar
    20    10    11    2
    21    10    12   am
    22    12    13    1
    23    12    31    1
    24    13    14    1
    25    13    15    1
    26    13    18    1
    27    15    16    1
    28    15    32    1
    29    15    33    1
    30    16    17    3
    31    18    19    1
    32    18    20    1
    33    18    21    1
    34    22    34    1
@<TRIPOS>SUBSTRUCTURE
     1 ZINC000928803822        1 TEMP              0 ****  ****    0 ROOT


##########                                Name:    ZINC000618094467
##########                DOCK_Rotatable_Bonds:                   5
##########                         Heavy_Atoms:                  27
##########                    Molecular_Weight:             370.492
##########                DOCK_Rotatable_Bonds:                   5
##########                       Formal_Charge:                0.03
##########                     HBond_Acceptors:                   5
##########                        HBond_Donors:                   0
##########                         Heavy_Atoms:                  27
##########                          Grid_Score:          -26.423397
##########                     Grid_vdw_energy:          -25.768467
##########                      Grid_es_energy:           -0.654930
##########           Internal_energy_repulsive:           82.521339

@<TRIPOS>MOLECULE
ZINC000618094467
 57 59 1 0 0
SMALL
USER_CHARGES


@<TRIPOS>ATOM
      1 C1         -8.1220   -2.0733   58.0424 C.3     1  ZINC000618094467   -0.1500
      2 C2         -7.2151   -1.2722   58.9787 C.3     1  ZINC000618094467   -0.1000
      3 C3         -7.6478    0.1953   58.9759 C.3     1  ZINC000618094467   -0.1100
      4 H4         -7.2166    0.7029   59.8388 H       1  ZINC000618094467    0.1000
      5 C5         -7.1594    0.8685   57.6916 C.3     1  ZINC000618094467   -0.1500
      6 C6         -9.1510    0.2759   59.0449 C.2     1  ZINC000618094467    0.5200
      7 O7         -9.7861    0.6071   58.0662 O.2     1  ZINC000618094467   -0.5000
      8 N8         -9.7898   -0.0200   60.1942 N.am    1  ZINC000618094467   -0.6100
      9 C9         -9.0508   -0.4238   61.3952 C.3     1  ZINC000618094467    0.1400
     10 C10        -9.6052    0.2963   62.5987 C.ar    1  ZINC000618094467   -0.1000
     11 C11        -8.8830    0.2307   63.7821 C.ar    1  ZINC000618094467   -0.1100
     12 C12        -9.3442    0.8607   64.9200 C.ar    1  ZINC000618094467   -0.1200
     13 C13       -10.5351    1.5613   64.8805 C.ar    1  ZINC000618094467   -0.1100
     14 C14       -11.2516    1.6306   63.7038 C.ar    1  ZINC000618094467   -0.1200
     15 C15       -10.7867    1.0024   62.5551 C.ar    1  ZINC000618094467   -0.0600
     16 C16       -11.6080    1.1442   61.3007 C.3     1  ZINC000618094467   -0.0800
     17 C17       -11.2565    0.0551   60.2962 C.3     1  ZINC000618094467    0.1200
     18 H18       -11.6471   -0.9030   60.6393 H       1  ZINC000618094467    0.1000
     19 C19       -11.8455    0.3932   58.9508 C.2     1  ZINC000618094467    0.5500
     20 O20       -12.0788    1.5483   58.6640 O.2     1  ZINC000618094467   -0.5200
     21 N21       -12.1129   -0.5880   58.0665 N.am    1  ZINC000618094467   -0.6100
     22 C22       -11.8393   -1.9900   58.4073 C.3     1  ZINC000618094467    0.1200
     23 C23       -13.1421   -2.7908   58.2866 C.3     1  ZINC000618094467   -0.1600
     24 H24       -12.9243   -3.8572   58.3467 H       1  ZINC000618094467    0.1100
     25 C25       -14.0962   -2.3955   59.4155 C.3     1  ZINC000618094467   -0.1400
     26 C26       -13.7753   -2.4748   56.9494 C.2     1  ZINC000618094467    0.3700
     27 O27       -14.0898   -3.3592   56.1896 O.2     1  ZINC000618094467   -0.4400
     28 C28       -14.0056   -1.0240   56.5874 C.3     1  ZINC000618094467   -0.1600
     29 H29       -14.7573   -0.5952   57.2501 H       1  ZINC000618094467    0.1100
     30 C30       -14.4810   -0.9243   55.1366 C.3     1  ZINC000618094467   -0.1400
     31 C31       -12.6868   -0.2681   56.7530 C.3     1  ZINC000618094467    0.1400
     32 H32        -8.0442   -1.6734   57.0313 H       1  ZINC000618094467    0.0500
     33 H33        -7.8136   -3.1187   58.0444 H       1  ZINC000618094467    0.0600
     34 H34        -9.1543   -1.9981   58.3843 H       1  ZINC000618094467    0.0600
     35 H35        -7.2929   -1.6720   59.9898 H       1  ZINC000618094467    0.0700
     36 H36        -6.1828   -1.3473   58.6368 H       1  ZINC000618094467    0.0700
     37 H37        -7.4767    0.2810   56.8301 H       1  ZINC000618094467    0.0700
     38 H38        -7.5822    1.8709   57.6235 H       1  ZINC000618094467    0.0700
     39 H39        -6.0715    0.9334   57.7066 H       1  ZINC000618094467    0.0700
     40 H40        -9.1514   -1.4997   61.5383 H       1  ZINC000618094467    0.0900
     41 H41        -7.9973   -0.1715   61.2749 H       1  ZINC000618094467    0.1100
     42 H42        -7.9533   -0.3181   63.8129 H       1  ZINC000618094467    0.1300
     43 H43        -8.7772    0.8064   65.8376 H       1  ZINC000618094467    0.1300
     44 H44       -10.9037    2.0529   65.7687 H       1  ZINC000618094467    0.1200
     45 H45       -12.1824    2.1777   63.6753 H       1  ZINC000618094467    0.1200
     46 H46       -12.6656    1.0720   61.5545 H       1  ZINC000618094467    0.0900
     47 H47       -11.4132    2.1188   60.8530 H       1  ZINC000618094467    0.1000
     48 H48       -11.0965   -2.3949   57.7201 H       1  ZINC000618094467    0.0700
     49 H49       -11.4661   -2.0514   59.4297 H       1  ZINC000618094467    0.0900
     50 H50       -14.3868   -1.3517   59.2969 H       1  ZINC000618094467    0.0600
     51 H51       -14.9843   -3.0264   59.3782 H       1  ZINC000618094467    0.0600
     52 H52       -13.5972   -2.5270   60.3756 H       1  ZINC000618094467    0.0700
     53 H53       -15.4128   -1.4780   55.0207 H       1  ZINC000618094467    0.0700
     54 H54       -14.6459    0.1221   54.8794 H       1  ZINC000618094467    0.0700
     55 H55       -13.7234   -1.3458   54.4761 H       1  ZINC000618094467    0.0600
     56 H56       -12.8693    0.8043   56.6845 H       1  ZINC000618094467    0.1100
     57 H57       -11.9902   -0.5730   55.9721 H       1  ZINC000618094467    0.0700
@<TRIPOS>BOND
     1     1     2    1
     2     1    32    1
     3     1    33    1
     4     1    34    1
     5     2     3    1
     6     2    35    1
     7     2    36    1
     8     3     4    1
     9     3     5    1
    10     3     6    1
    11     5    37    1
    12     5    38    1
    13     5    39    1
    14     6     7    2
    15     6     8   am
    16     8    17    1
    17     8     9    1
    18     9    10    1
    19     9    40    1
    20     9    41    1
    21    10    15   ar
    22    10    11   ar
    23    11    12   ar
    24    11    42    1
    25    12    13   ar
    26    12    43    1
    27    13    14   ar
    28    13    44    1
    29    14    15   ar
    30    14    45    1
    31    15    16    1
    32    16    17    1
    33    16    46    1
    34    16    47    1
    35    17    18    1
    36    17    19    1
    37    19    20    2
    38    19    21   am
    39    21    31    1
    40    21    22    1
    41    22    23    1
    42    22    48    1
    43    22    49    1
    44    23    24    1
    45    23    25    1
    46    23    26    1
    47    25    50    1
    48    25    51    1
    49    25    52    1
    50    26    27    2
    51    26    28    1
    52    28    29    1
    53    28    30    1
    54    28    31    1
    55    30    53    1
    56    30    54    1
    57    30    55    1
    58    31    56    1
    59    31    57    1
@<TRIPOS>SUBSTRUCTURE
     1 ZINC000618094467        1 TEMP              0 ****  ****    0 ROOT


##########                                Name:    ZINC000863208514
##########                DOCK_Rotatable_Bonds:                   6
##########                         Heavy_Atoms:                  19
##########                    Molecular_Weight:             368.657
##########                DOCK_Rotatable_Bonds:                   6
##########                       Formal_Charge:           0.0100005
##########                     HBond_Acceptors:                   7
##########                        HBond_Donors:                   2
##########                         Heavy_Atoms:                  19
##########                          Grid_Score:          -26.344662
##########                     Grid_vdw_energy:          -25.954962
##########                      Grid_es_energy:           -0.389700
##########           Internal_energy_repulsive:            8.687389

@<TRIPOS>MOLECULE
ZINC000863208514
 31 31 1 0 0
SMALL
USER_CHARGES


@<TRIPOS>ATOM
      1 C1         -8.4598   -4.6317   57.9063 C.3     1  ZINC000863208514    0.0900
      2 N2         -7.8082   -3.3289   58.0629 N.am    1  ZINC000863208514   -0.6100
      3 C3         -6.5095   -3.2355   58.7343 C.3     1  ZINC000863208514    0.0700
      4 C4         -8.4036   -2.2164   57.5893 C.2     1  ZINC000863208514    0.5100
      5 O5         -7.8635   -1.1381   57.7176 O.2     1  ZINC000863208514   -0.5400
      6 C6         -9.7404   -2.3124   56.9003 C.3     1  ZINC000863208514    0.1100
      7 N7         -9.7572   -1.4179   55.7402 N.am    1  ZINC000863208514   -0.6600
      8 C8        -10.9046   -1.2137   55.0632 C.2     1  ZINC000863208514    0.5600
      9 S9        -12.3420   -2.0013   55.5577 S.2     1  ZINC000863208514   -0.6000
     10 N10       -10.9203   -0.3896   53.9969 N.am    1  ZINC000863208514   -0.6300
     11 C11        -9.7444    0.2546   53.5923 C.ar    1  ZINC000863208514    0.1200
     12 C12        -9.1127   -0.1255   52.4168 C.ar    1  ZINC000863208514   -0.0300
     13 C13        -7.9520    0.5124   52.0192 C.ar    1  ZINC000863208514   -0.0200
     14 Cl14       -7.1618    0.0377   50.5482 Cl      1  ZINC000863208514   -0.0300
     15 C15        -7.4197    1.5296   52.7927 C.ar    1  ZINC000863208514   -0.0600
     16 Br16       -5.8322    2.3993   52.2454 Br      1  ZINC000863208514   -0.0100
     17 C17        -8.0472    1.9115   53.9654 C.ar    1  ZINC000863208514   -0.1100
     18 C18        -9.2105    1.2804   54.3652 C.ar    1  ZINC000863208514    0.1100
     19 F19        -9.8231    1.6533   55.5102 F       1  ZINC000863208514   -0.1200
     20 H20        -7.8334   -5.4067   58.3479 H       1  ZINC000863208514    0.0800
     21 H21        -9.4272   -4.6167   58.4082 H       1  ZINC000863208514    0.0700
     22 H22        -8.6037   -4.8409   56.8463 H       1  ZINC000863208514    0.0700
     23 H23        -5.7119   -3.3418   57.9991 H       1  ZINC000863208514    0.0700
     24 H24        -6.4236   -2.2666   59.2261 H       1  ZINC000863208514    0.0800
     25 H25        -6.4267   -4.0287   59.4774 H       1  ZINC000863208514    0.0800
     26 H26        -9.9065   -3.3380   56.5708 H       1  ZINC000863208514    0.1200
     27 H27       -10.5287   -2.0217   57.5946 H       1  ZINC000863208514    0.1200
     28 H28        -8.9425   -0.9727   55.4592 H       1  ZINC000863208514    0.4100
     29 H29       -11.7461   -0.2427   53.5096 H       1  ZINC000863208514    0.4200
     30 H30        -9.5271   -0.9191   51.8128 H       1  ZINC000863208514    0.1800
     31 H31        -7.6297    2.7053   54.5671 H       1  ZINC000863208514    0.1600
@<TRIPOS>BOND
     1     1     2    1
     2     1    20    1
     3     1    21    1
     4     1    22    1
     5     2     3    1
     6     2     4   am
     7     3    23    1
     8     3    24    1
     9     3    25    1
    10     4     5    2
    11     4     6    1
    12     6     7    1
    13     6    26    1
    14     6    27    1
    15     7     8   am
    16     7    28    1
    17     8     9    2
    18     8    10   am
    19    10    11    1
    20    10    29    1
    21    11    18   ar
    22    11    12   ar
    23    12    13   ar
    24    12    30    1
    25    13    14    1
    26    13    15   ar
    27    15    16    1
    28    15    17   ar
    29    17    18   ar
    30    17    31    1
    31    18    19    1
@<TRIPOS>SUBSTRUCTURE
     1 ZINC000863208514        1 TEMP              0 ****  ****    0 ROOT


##########                                Name:    ZINC000516003207
##########                DOCK_Rotatable_Bonds:                   5
##########                         Heavy_Atoms:                  24
##########                    Molecular_Weight:             342.462
##########                DOCK_Rotatable_Bonds:                   5
##########                       Formal_Charge:          -0.0200001
##########                     HBond_Acceptors:                   5
##########                        HBond_Donors:                   1
##########                         Heavy_Atoms:                  24
##########                          Grid_Score:          -26.327353
##########                     Grid_vdw_energy:          -26.177650
##########                      Grid_es_energy:           -0.149703
##########           Internal_energy_repulsive:            9.774600

@<TRIPOS>MOLECULE
ZINC000516003207
 46 49 1 0 0
SMALL
USER_CHARGES


@<TRIPOS>ATOM
      1 C1        -14.0086   -3.0866   58.8351 C.3     1  ZINC000516003207    0.0300
      2 O2        -13.1191   -1.9931   58.6002 O.3     1  ZINC000516003207   -0.3600
      3 C3        -12.3792   -2.0971   57.3821 C.3     1  ZINC000516003207    0.0900
      4 H4        -12.7263   -2.9093   56.7434 H       1  ZINC000516003207    0.0800
      5 C5        -12.2146   -0.7568   56.6428 C.3     1  ZINC000516003207   -0.1700
      6 C6        -10.9214   -0.5524   57.4527 C.3     1  ZINC000516003207    0.1500
      7 H7        -11.0759   -0.0389   58.4015 H       1  ZINC000516003207    0.1200
      8 N8         -9.8211    0.0160   56.6699 N.am    1  ZINC000516003207   -0.7200
      9 C9         -8.7701    0.5811   57.2965 C.2     1  ZINC000516003207    0.5600
     10 O10        -8.7344    0.6177   58.5109 O.2     1  ZINC000516003207   -0.5300
     11 C11        -7.6603    1.1563   56.5065 C.ar    1  ZINC000516003207   -0.1400
     12 C12        -6.5417    1.6852   57.1531 C.ar    1  ZINC000516003207   -0.0800
     13 C13        -5.5055    2.2229   56.4159 C.ar    1  ZINC000516003207   -0.1200
     14 C14        -5.5683    2.2406   55.0364 C.ar    1  ZINC000516003207   -0.0800
     15 C15        -6.6803    1.7150   54.3785 C.ar    1  ZINC000516003207   -0.0300
     16 C16        -6.7451    1.7355   52.8965 C.2     1  ZINC000516003207    0.1100
     17 C17        -7.7523    1.1734   52.1984 C.2     1  ZINC000516003207   -0.2600
     18 S18        -7.4317    1.4294   50.4851 S.3     1  ZINC000516003207    0.1400
     19 C19        -5.9875    2.2601   50.8662 C.2     1  ZINC000516003207    0.0600
     20 C20        -5.0441    2.8530   49.8515 C.3     1  ZINC000516003207   -0.0800
     21 N21        -5.8210    2.3128   52.1423 N.2     1  ZINC000516003207   -0.4700
     22 C22        -7.7258    1.1668   55.1141 C.ar    1  ZINC000516003207   -0.0300
     23 C23       -10.8633   -2.0779   57.5813 C.3     1  ZINC000516003207   -0.1100
     24 C24       -10.2154   -2.7450   58.7952 C.3     1  ZINC000516003207   -0.1200
     25 C25        -9.8714   -3.9173   57.8585 C.3     1  ZINC000516003207   -0.1400
     26 C26        -9.9373   -2.9115   56.6949 C.3     1  ZINC000516003207   -0.1200
     27 H27       -13.4388   -4.0146   58.8832 H       1  ZINC000516003207    0.0400
     28 H28       -14.5324   -2.9326   59.7786 H       1  ZINC000516003207    0.0900
     29 H29       -14.7330   -3.1467   58.0229 H       1  ZINC000516003207    0.0400
     30 H30       -12.0454   -0.8675   55.5717 H       1  ZINC000516003207    0.0900
     31 H31       -12.9943   -0.0316   56.8759 H       1  ZINC000516003207    0.0800
     32 H32        -9.8490   -0.0144   55.7008 H       1  ZINC000516003207    0.4000
     33 H33        -6.4868    1.6740   58.2317 H       1  ZINC000516003207    0.1300
     34 H34        -4.6422    2.6316   56.9202 H       1  ZINC000516003207    0.1400
     35 H35        -4.7547    2.6631   54.4655 H       1  ZINC000516003207    0.1300
     36 H36        -8.6044    0.6573   52.6156 H       1  ZINC000516003207    0.1800
     37 H37        -5.4271    2.6682   48.8479 H       1  ZINC000516003207    0.0800
     38 H38        -4.9612    3.9272   50.0167 H       1  ZINC000516003207    0.0900
     39 H39        -4.0617    2.3924   49.9561 H       1  ZINC000516003207    0.0900
     40 H40        -8.5888    0.7587   54.6089 H       1  ZINC000516003207    0.1500
     41 H41        -9.3407   -2.2141   59.1711 H       1  ZINC000516003207    0.0800
     42 H42       -10.9241   -3.0063   59.5810 H       1  ZINC000516003207    0.0800
     43 H43        -8.8757   -4.3291   58.0230 H       1  ZINC000516003207    0.0700
     44 H44       -10.6454   -4.6837   57.8168 H       1  ZINC000516003207    0.0800
     45 H45       -10.4239   -3.3058   55.8028 H       1  ZINC000516003207    0.0700
     46 H46        -8.9845   -2.4275   56.4804 H       1  ZINC000516003207    0.0900
@<TRIPOS>BOND
     1     1     2    1
     2     1    27    1
     3     1    28    1
     4     1    29    1
     5     2     3    1
     6     3     4    1
     7     3    23    1
     8     3     5    1
     9     5     6    1
    10     5    30    1
    11     5    31    1
    12     6     7    1
    13     6     8    1
    14     6    23    1
    15     8     9   am
    16     8    32    1
    17     9    10    2
    18     9    11    1
    19    11    22   ar
    20    11    12   ar
    21    12    13   ar
    22    12    33    1
    23    13    14   ar
    24    13    34    1
    25    14    15   ar
    26    14    35    1
    27    15    16    1
    28    15    22   ar
    29    16    21    1
    30    16    17    2
    31    17    18    1
    32    17    36    1
    33    18    19    1
    34    19    20    1
    35    19    21    2
    36    20    37    1
    37    20    38    1
    38    20    39    1
    39    22    40    1
    40    23    26    1
    41    23    24    1
    42    24    25    1
    43    24    41    1
    44    24    42    1
    45    25    26    1
    46    25    43    1
    47    25    44    1
    48    26    45    1
    49    26    46    1
@<TRIPOS>SUBSTRUCTURE
     1 ZINC000516003207        1 TEMP              0 ****  ****    0 ROOT


##########                                Name:    ZINC001135312623
##########                DOCK_Rotatable_Bonds:                   3
##########                         Heavy_Atoms:                  25
##########                    Molecular_Weight:             341.323
##########                DOCK_Rotatable_Bonds:                   3
##########                       Formal_Charge:        -1.78814e-07
##########                     HBond_Acceptors:                   8
##########                        HBond_Donors:                   2
##########                         Heavy_Atoms:                  25
##########                          Grid_Score:          -26.301819
##########                     Grid_vdw_energy:          -26.613062
##########                      Grid_es_energy:            0.311243
##########           Internal_energy_repulsive:            9.925938

@<TRIPOS>MOLECULE
ZINC001135312623
 40 42 1 0 0
SMALL
USER_CHARGES


@<TRIPOS>ATOM
      1 C1         -7.0660    1.0031   50.2412 C.3     1  ZINC001135312623   -0.1300
      2 C2         -6.5164    1.5538   51.5317 C.ar    1  ZINC001135312623   -0.0600
      3 C3         -7.3163    1.6089   52.6559 C.ar    1  ZINC001135312623   -0.1000
      4 C4         -6.8128    2.1147   53.8407 C.ar    1  ZINC001135312623   -0.0300
      5 C5         -7.6887    2.1733   55.0656 C.3     1  ZINC001135312623   -0.1300
      6 C6         -5.5075    2.5661   53.9038 C.ar    1  ZINC001135312623   -0.0200
      7 N7         -4.9728    3.1066   55.1737 N.pl3   1  ZINC001135312623    0.0200
      8 O8         -4.1814    4.0324   55.1563 O.2     1  ZINC001135312623   -0.1500
      9 O9         -5.3241    2.6257   56.2362 O.2     1  ZINC001135312623   -0.1500
     10 C10        -4.7018    2.5129   52.7831 C.ar    1  ZINC001135312623   -0.0700
     11 C11        -5.2027    2.0013   51.5932 C.ar    1  ZINC001135312623    0.1500
     12 N12        -4.3897    1.9459   50.4568 N.am    1  ZINC001135312623   -0.6600
     13 C13        -3.1280    1.4817   50.5528 C.2     1  ZINC001135312623    0.5600
     14 O14        -2.6967    1.1111   51.6276 O.2     1  ZINC001135312623   -0.5000
     15 C15        -2.2701    1.4233   49.3537 C.ar    1  ZINC001135312623   -0.1600
     16 C16        -0.9894    0.8701   49.4356 C.ar    1  ZINC001135312623   -0.0400
     17 C17        -0.1887    0.8165   48.3158 C.ar    1  ZINC001135312623   -0.1500
     18 C18        -0.6559    1.3124   47.1055 C.ar    1  ZINC001135312623    0.2000
     19 N19         0.1397    1.2709   45.9602 N.am    1  ZINC001135312623   -0.6700
     20 C20        -0.1887    2.0245   44.8918 C.2     1  ZINC001135312623    0.6600
     21 O21         0.4912    1.9687   43.8863 O.2     1  ZINC001135312623   -0.4900
     22 O22        -1.2600    2.8374   44.9251 O.3     1  ZINC001135312623   -0.3400
     23 C23        -2.4124    2.3913   45.6914 C.3     1  ZINC001135312623    0.1100
     24 C24        -1.9337    1.8633   47.0208 C.ar    1  ZINC001135312623   -0.1800
     25 C25        -2.7396    1.9164   48.1316 C.ar    1  ZINC001135312623    0.0000
     26 H26        -6.8902   -0.0719   50.2007 H       1  ZINC001135312623    0.0900
     27 H27        -8.1372    1.1983   50.1897 H       1  ZINC001135312623    0.0800
     28 H28        -6.5682    1.4845   49.3994 H       1  ZINC001135312623    0.0700
     29 H29        -8.3363    1.2570   52.6100 H       1  ZINC001135312623    0.1500
     30 H30        -7.6524    1.2154   55.5844 H       1  ZINC001135312623    0.0900
     31 H31        -7.3318    2.9602   55.7301 H       1  ZINC001135312623    0.0800
     32 H32        -8.7154    2.3868   54.7682 H       1  ZINC001135312623    0.0800
     33 H33        -3.6823    2.8658   52.8331 H       1  ZINC001135312623    0.1700
     34 H34        -4.7336    2.2417   49.5994 H       1  ZINC001135312623    0.4200
     35 H35        -0.6270    0.4847   50.3772 H       1  ZINC001135312623    0.1400
     36 H36         0.8013    0.3896   48.3791 H       1  ZINC001135312623    0.1500
     37 H37         0.9254    0.7028   45.9330 H       1  ZINC001135312623    0.4300
     38 H38        -3.0904    3.2293   45.8534 H       1  ZINC001135312623    0.1300
     39 H39        -2.9288    1.5999   45.1480 H       1  ZINC001135312623    0.1000
     40 H40        -3.7304    2.3407   48.0628 H       1  ZINC001135312623    0.1500
@<TRIPOS>BOND
     1     1     2    1
     2     1    26    1
     3     1    27    1
     4     1    28    1
     5     2    11   ar
     6     2     3   ar
     7     3     4   ar
     8     3    29    1
     9     4     5    1
    10     4     6   ar
    11     5    30    1
    12     5    31    1
    13     5    32    1
    14     6     7    1
    15     6    10   ar
    16     7     8    2
    17     7     9    2
    18    10    11   ar
    19    10    33    1
    20    11    12    1
    21    12    13   am
    22    12    34    1
    23    13    14    2
    24    13    15    1
    25    15    25   ar
    26    15    16   ar
    27    16    17   ar
    28    16    35    1
    29    17    18   ar
    30    17    36    1
    31    18    24   ar
    32    18    19    1
    33    19    20   am
    34    19    37    1
    35    20    21    2
    36    20    22    1
    37    22    23    1
    38    23    24    1
    39    23    38    1
    40    23    39    1
    41    24    25   ar
    42    25    40    1
@<TRIPOS>SUBSTRUCTURE
     1 ZINC001135312623        1 TEMP              0 ****  ****    0 ROOT


##########                                Name:    ZINC000854500114
##########                DOCK_Rotatable_Bonds:                   7
##########                         Heavy_Atoms:                  24
##########                    Molecular_Weight:             399.288
##########                DOCK_Rotatable_Bonds:                   7
##########                       Formal_Charge:          -0.0399992
##########                     HBond_Acceptors:                   7
##########                        HBond_Donors:                   2
##########                         Heavy_Atoms:                  24
##########                          Grid_Score:          -26.237226
##########                     Grid_vdw_energy:          -24.316641
##########                      Grid_es_energy:           -1.920586
##########           Internal_energy_repulsive:           74.339996

@<TRIPOS>MOLECULE
ZINC000854500114
 47 49 1 0 0
SMALL
USER_CHARGES


@<TRIPOS>ATOM
      1 O1         -9.4802   -0.1458   61.5489 O.2     1  ZINC000854500114   -0.5800
      2 C2         -8.4102    0.4205   61.6539 C.2     1  ZINC000854500114    0.6600
      3 N3         -7.8848    0.6478   62.8741 N.am    1  ZINC000854500114   -0.7100
      4 C4         -8.6067    0.2174   64.0741 C.3     1  ZINC000854500114    0.1600
      5 C5         -7.6206    0.0325   65.2460 C.3     1  ZINC000854500114   -0.1400
      6 C6         -7.6891    1.3750   66.0154 C.3     1  ZINC000854500114   -0.1300
      7 C7         -9.1910    1.7433   65.9272 C.3     1  ZINC000854500114   -0.1300
      8 C8         -9.6051    1.3051   64.5072 C.3     1  ZINC000854500114   -0.1300
      9 O9         -7.7468    0.8160   60.5511 O.3     1  ZINC000854500114   -0.3600
     10 C10        -8.3513    0.4997   59.2694 C.3     1  ZINC000854500114    0.1000
     11 C11        -7.4389    0.9858   58.1414 C.3     1  ZINC000854500114    0.1500
     12 H12        -6.5142    0.4088   58.1451 H       1  ZINC000854500114    0.0900
     13 C13        -7.1187    2.4703   58.3435 C.3     1  ZINC000854500114   -0.1300
     14 C14        -6.3227    2.9845   57.1418 C.3     1  ZINC000854500114   -0.1200
     15 C15        -7.1636    2.8404   55.8713 C.3     1  ZINC000854500114   -0.1400
     16 C16        -7.4842    1.3601   55.6412 C.3     1  ZINC000854500114    0.0900
     17 N17        -8.1194    0.8174   56.8502 N.am    1  ZINC000854500114   -0.6100
     18 C18        -9.3058    0.1820   56.7764 C.2     1  ZINC000854500114    0.5900
     19 O19        -9.8212   -0.2627   57.7844 O.2     1  ZINC000854500114   -0.4900
     20 C20        -9.9774    0.0263   55.4764 C.2     1  ZINC000854500114   -0.0300
     21 C21       -11.0519    0.7595   55.0036 C.2     1  ZINC000854500114   -0.1200
     22 C22       -11.3230    0.2421   53.7341 C.2     1  ZINC000854500114    0.0200
     23 Br23      -12.6877    0.8250   52.5620 Br      1  ZINC000854500114    0.0400
     24 N24       -10.4639   -0.7177   53.5003 N.2     1  ZINC000854500114   -0.2400
     25 N25        -9.6617   -0.8667   54.4922 N.pl3   1  ZINC000854500114   -0.3700
     26 H26        -7.0289    1.0963   62.9578 H       1  ZINC000854500114    0.4000
     27 H27        -9.1336   -0.7163   63.8777 H       1  ZINC000854500114    0.0900
     28 H28        -7.9386   -0.7906   65.8859 H       1  ZINC000854500114    0.0800
     29 H29        -6.6117   -0.1418   64.8719 H       1  ZINC000854500114    0.0700
     30 H30        -7.3845    1.2412   67.0535 H       1  ZINC000854500114    0.0700
     31 H31        -7.0762    2.1321   65.5265 H       1  ZINC000854500114    0.0700
     32 H32        -9.7625    1.1964   66.6770 H       1  ZINC000854500114    0.0700
     33 H33        -9.3281    2.8176   66.0501 H       1  ZINC000854500114    0.0700
     34 H34        -9.5527    2.1533   63.8245 H       1  ZINC000854500114    0.0700
     35 H35       -10.6165    0.8991   64.5218 H       1  ZINC000854500114    0.0800
     36 H36        -8.4870   -0.5787   59.1878 H       1  ZINC000854500114    0.1000
     37 H37        -9.3194    0.9946   59.1922 H       1  ZINC000854500114    0.0700
     38 H38        -8.0474    3.0338   58.4327 H       1  ZINC000854500114    0.0800
     39 H39        -6.5283    2.5948   59.2513 H       1  ZINC000854500114    0.0900
     40 H40        -6.0724    4.0343   57.2944 H       1  ZINC000854500114    0.0800
     41 H41        -5.4059    2.4041   57.0383 H       1  ZINC000854500114    0.0700
     42 H42        -8.0919    3.4004   55.9838 H       1  ZINC000854500114    0.0700
     43 H43        -6.6051    3.2283   55.0194 H       1  ZINC000854500114    0.0800
     44 H44        -8.1641    1.2607   54.7950 H       1  ZINC000854500114    0.0800
     45 H45        -6.5630    0.8139   55.4384 H       1  ZINC000854500114    0.0800
     46 H46       -11.5706    1.5610   55.5085 H       1  ZINC000854500114    0.1700
     47 H47        -8.9447   -1.5184   54.5381 H       1  ZINC000854500114    0.4500
@<TRIPOS>BOND
     1     1     2    2
     2     2     3   am
     3     2     9    1
     4     3     4    1
     5     3    26    1
     6     4     8    1
     7     4     5    1
     8     4    27    1
     9     5     6    1
    10     5    28    1
    11     5    29    1
    12     6     7    1
    13     6    30    1
    14     6    31    1
    15     7     8    1
    16     7    32    1
    17     7    33    1
    18     8    34    1
    19     8    35    1
    20     9    10    1
    21    10    11    1
    22    10    36    1
    23    10    37    1
    24    11    12    1
    25    11    17    1
    26    11    13    1
    27    13    14    1
    28    13    38    1
    29    13    39    1
    30    14    15    1
    31    14    40    1
    32    14    41    1
    33    15    16    1
    34    15    42    1
    35    15    43    1
    36    16    17    1
    37    16    44    1
    38    16    45    1
    39    17    18   am
    40    18    19    2
    41    18    20    1
    42    20    25    1
    43    20    21    2
    44    21    22    1
    45    21    46    1
    46    22    23    1
    47    22    24    2
    48    24    25    1
    49    25    47    1
@<TRIPOS>SUBSTRUCTURE
     1 ZINC000854500114        1 TEMP              0 ****  ****    0 ROOT


##########                                Name:    ZINC000426607143
##########                DOCK_Rotatable_Bonds:                   3
##########                         Heavy_Atoms:                  25
##########                    Molecular_Weight:             419.302
##########                DOCK_Rotatable_Bonds:                   3
##########                       Formal_Charge:         1.49012e-07
##########                     HBond_Acceptors:                   7
##########                        HBond_Donors:                   0
##########                         Heavy_Atoms:                  25
##########                          Grid_Score:          -26.137188
##########                     Grid_vdw_energy:          -24.615416
##########                      Grid_es_energy:           -1.521773
##########           Internal_energy_repulsive:            8.516354

@<TRIPOS>MOLECULE
ZINC000426607143
 40 43 1 0 0
SMALL
USER_CHARGES


@<TRIPOS>ATOM
      1 C1        -15.3245    1.5050   62.3293 C.3     1  ZINC000426607143   -0.0900
      2 C2        -16.3574    1.5791   61.2343 C.2     1  ZINC000426607143    0.1600
      3 N3        -17.4905    2.1872   61.4088 N.2     1  ZINC000426607143   -0.4600
      4 S4        -18.3687    2.0535   59.9649 S.3     1  ZINC000426607143    0.2900
      5 C5        -17.1732    1.1563   59.1133 C.2     1  ZINC000426607143   -0.1300
      6 C6        -17.2499    0.6504   57.6957 C.3     1  ZINC000426607143   -0.0800
      7 C7        -16.1395    1.0048   59.9890 C.2     1  ZINC000426607143   -0.1200
      8 C8        -14.8924    0.2799   59.6442 C.2     1  ZINC000426607143    0.2500
      9 N9        -13.6699    0.7178   59.8038 N.2     1  ZINC000426607143   -0.3700
     10 O10       -12.8757   -0.1162   59.4233 O.3     1  ZINC000426607143    0.0900
     11 C11       -13.5243   -1.1945   58.9724 C.2     1  ZINC000426607143    0.2000
     12 C12       -12.8990   -2.4470   58.4148 C.3     1  ZINC000426607143   -0.0300
     13 H13       -13.5260   -3.3127   58.6277 H       1  ZINC000426607143    0.1600
     14 C14       -12.6700   -2.3059   56.8921 C.3     1  ZINC000426607143   -0.1200
     15 C15       -11.3332   -3.0568   56.7036 C.3     1  ZINC000426607143    0.1000
     16 N16       -10.6536   -2.9784   58.0021 N.am    1  ZINC000426607143   -0.5800
     17 C17        -9.2888   -3.2214   58.1951 C.ar    1  ZINC000426607143    0.1700
     18 C18        -8.8446   -4.5046   58.4830 C.ar    1  ZINC000426607143   -0.1000
     19 C19        -7.4968   -4.7413   58.6730 C.ar    1  ZINC000426607143   -0.1000
     20 C20        -6.5903   -3.7018   58.5772 C.ar    1  ZINC000426607143   -0.1000
     21 C21        -7.0289   -2.4220   58.2905 C.ar    1  ZINC000426607143   -0.0900
     22 C22        -8.3747   -2.1795   58.0933 C.ar    1  ZINC000426607143   -0.0800
     23 Br23       -8.9739   -0.4293   57.7015 Br      1  ZINC000426607143   -0.0400
     24 C24       -11.5116   -2.6450   58.9848 C.2     1  ZINC000426607143    0.5300
     25 O25       -11.2139   -2.5186   60.1538 O.2     1  ZINC000426607143   -0.4900
     26 N26       -14.8055   -0.9601   59.1111 N.2     1  ZINC000426607143   -0.4600
     27 H27       -14.6598    2.3662   62.2606 H       1  ZINC000426607143    0.0900
     28 H28       -15.8222    1.5067   63.2990 H       1  ZINC000426607143    0.0800
     29 H29       -14.7443    0.5887   62.2201 H       1  ZINC000426607143    0.1100
     30 H30       -18.2055    0.9391   57.2580 H       1  ZINC000426607143    0.0800
     31 H31       -16.4374    1.0822   57.1115 H       1  ZINC000426607143    0.0900
     32 H32       -17.1622   -0.4361   57.6926 H       1  ZINC000426607143    0.0900
     33 H33       -13.4706   -2.7879   56.3310 H       1  ZINC000426607143    0.1100
     34 H34       -12.5723   -1.2582   56.6078 H       1  ZINC000426607143    0.1000
     35 H35       -11.5194   -4.0974   56.4376 H       1  ZINC000426607143    0.0900
     36 H36       -10.7332   -2.5715   55.9339 H       1  ZINC000426607143    0.0900
     37 H37        -9.5519   -5.3172   58.5587 H       1  ZINC000426607143    0.1400
     38 H38        -7.1509   -5.7396   58.8970 H       1  ZINC000426607143    0.1400
     39 H39        -5.5374   -3.8897   58.7270 H       1  ZINC000426607143    0.1400
     40 H40        -6.3182   -1.6121   58.2165 H       1  ZINC000426607143    0.1400
@<TRIPOS>BOND
     1     1     2    1
     2     1    27    1
     3     1    28    1
     4     1    29    1
     5     2     7    1
     6     2     3    2
     7     3     4    1
     8     4     5    1
     9     5     6    1
    10     5     7    2
    11     6    30    1
    12     6    31    1
    13     6    32    1
    14     7     8    1
    15     8    26    1
    16     8     9    2
    17     9    10    1
    18    10    11    1
    19    11    12    1
    20    11    26    2
    21    12    13    1
    22    12    24    1
    23    12    14    1
    24    14    15    1
    25    14    33    1
    26    14    34    1
    27    15    16    1
    28    15    35    1
    29    15    36    1
    30    16    17    1
    31    16    24   am
    32    17    22   ar
    33    17    18   ar
    34    18    19   ar
    35    18    37    1
    36    19    20   ar
    37    19    38    1
    38    20    21   ar
    39    20    39    1
    40    21    22   ar
    41    21    40    1
    42    22    23    1
    43    24    25    2
@<TRIPOS>SUBSTRUCTURE
     1 ZINC000426607143        1 TEMP              0 ****  ****    0 ROOT


##########                                Name:    ZINC001179023006
##########                DOCK_Rotatable_Bonds:                   3
##########                         Heavy_Atoms:                  25
##########                    Molecular_Weight:             340.465
##########                DOCK_Rotatable_Bonds:                   3
##########                       Formal_Charge:          -0.0100005
##########                     HBond_Acceptors:                   4
##########                        HBond_Donors:                   1
##########                         Heavy_Atoms:                  25
##########                          Grid_Score:          -26.109341
##########                     Grid_vdw_energy:          -26.572422
##########                      Grid_es_energy:            0.463082
##########           Internal_energy_repulsive:           43.069389

@<TRIPOS>MOLECULE
ZINC001179023006
 53 56 1 0 0
SMALL
USER_CHARGES


@<TRIPOS>ATOM
      1 C1         -8.8039   -0.2866   64.6608 C.3     1  ZINC001179023006   -0.1500
      2 C2         -8.1655    0.8928   63.9246 C.3     1  ZINC001179023006   -0.1100
      3 C3         -9.2388    1.9348   63.6033 C.3     1  ZINC001179023006   -0.1100
      4 C4         -8.9722    2.6720   62.3163 C.2     1  ZINC001179023006    0.5400
      5 O5         -8.6386    3.8377   62.3431 O.2     1  ZINC001179023006   -0.5400
      6 N6         -9.1041    2.0358   61.1354 N.am    1  ZINC001179023006   -0.5900
      7 C7         -9.5014    0.6223   61.0861 C.3     1  ZINC001179023006    0.1000
      8 C8         -8.4837   -0.1530   60.2526 C.3     1  ZINC001179023006   -0.1200
      9 C9         -8.3551    0.5032   58.8702 C.3     1  ZINC001179023006   -0.0500
     10 C10        -7.8331    1.9357   59.0551 C.3     1  ZINC001179023006   -0.1100
     11 C11        -8.8479    2.7403   59.8719 C.3     1  ZINC001179023006    0.0900
     12 C12        -7.3556   -0.2841   58.0376 C.3     1  ZINC001179023006   -0.0800
     13 C13        -7.7497   -1.7244   57.9162 C.ar    1  ZINC001179023006   -0.0700
     14 C14        -7.0214   -2.6750   58.6243 C.ar    1  ZINC001179023006   -0.1100
     15 C15        -7.3981   -4.0030   58.5829 C.ar    1  ZINC001179023006   -0.1100
     16 C16        -8.4959   -4.3927   57.8389 C.ar    1  ZINC001179023006   -0.1200
     17 C17        -9.2097   -3.4471   57.1243 C.ar    1  ZINC001179023006   -0.1000
     18 C18        -8.8170   -2.1211   57.1664 C.ar    1  ZINC001179023006   -0.1100
     19 C19        -9.5738   -1.0911   56.3672 C.3     1  ZINC001179023006    0.1400
     20 N20       -10.2141   -0.1174   57.2234 N.am    1  ZINC001179023006   -0.7000
     21 C21        -9.7035    0.5533   58.2238 C.2     1  ZINC001179023006    0.5200
     22 O22       -10.4606    1.3622   58.7170 O.2     1  ZINC001179023006   -0.5500
     23 C23        -9.5727    2.8601   64.7854 C.3     1  ZINC001179023006   -0.1200
     24 C24       -11.0463    2.7456   64.3547 C.3     1  ZINC001179023006   -0.1400
     25 C25       -10.6745    1.3959   63.7184 C.3     1  ZINC001179023006   -0.1300
     26 H26        -8.0332   -1.0111   64.9235 H       1  ZINC001179023006    0.0600
     27 H27        -9.2903    0.0716   65.5681 H       1  ZINC001179023006    0.0500
     28 H28        -9.5433   -0.7607   64.0152 H       1  ZINC001179023006    0.0600
     29 H29        -7.7123    0.5405   62.9980 H       1  ZINC001179023006    0.0700
     30 H30        -7.3992    1.3432   64.5555 H       1  ZINC001179023006    0.0700
     31 H31        -9.5294    0.2153   62.0968 H       1  ZINC001179023006    0.0900
     32 H32       -10.4866    0.5354   60.6280 H       1  ZINC001179023006    0.0800
     33 H33        -8.8166   -1.1844   60.1364 H       1  ZINC001179023006    0.0800
     34 H34        -7.5164   -0.1368   60.7547 H       1  ZINC001179023006    0.0800
     35 H35        -7.6985    2.4030   58.0795 H       1  ZINC001179023006    0.0800
     36 H36        -6.8791    1.9113   59.5817 H       1  ZINC001179023006    0.0800
     37 H37        -9.7774    2.8332   59.3103 H       1  ZINC001179023006    0.1200
     38 H38        -8.4448    3.7312   60.0813 H       1  ZINC001179023006    0.0800
     39 H39        -7.2992    0.1542   57.0412 H       1  ZINC001179023006    0.0800
     40 H40        -6.3742   -0.2225   58.5079 H       1  ZINC001179023006    0.0900
     41 H41        -6.1625   -2.3746   59.2061 H       1  ZINC001179023006    0.1200
     42 H42        -6.8324   -4.7399   59.1336 H       1  ZINC001179023006    0.1200
     43 H43        -8.7950   -5.4301   57.8157 H       1  ZINC001179023006    0.1300
     44 H44       -10.0671   -3.7420   56.5377 H       1  ZINC001179023006    0.1300
     45 H45       -10.3341   -1.5931   55.7688 H       1  ZINC001179023006    0.0900
     46 H46        -8.8804   -0.5777   55.7010 H       1  ZINC001179023006    0.0800
     47 H47       -11.1476    0.0622   57.0303 H       1  ZINC001179023006    0.4000
     48 H48        -9.3666    2.4159   65.7592 H       1  ZINC001179023006    0.0900
     49 H49        -9.1634    3.8651   64.6822 H       1  ZINC001179023006    0.0800
     50 H50       -11.3479    3.5018   63.6299 H       1  ZINC001179023006    0.0800
     51 H51       -11.7419    2.6581   65.1893 H       1  ZINC001179023006    0.0700
     52 H52       -11.1537    1.2207   62.7551 H       1  ZINC001179023006    0.0700
     53 H53       -10.7704    0.5507   64.4000 H       1  ZINC001179023006    0.0900
@<TRIPOS>BOND
     1     1     2    1
     2     1    26    1
     3     1    27    1
     4     1    28    1
     5     2     3    1
     6     2    29    1
     7     2    30    1
     8     3    25    1
     9     3     4    1
    10     3    23    1
    11     4     5    2
    12     4     6   am
    13     6    11    1
    14     6     7    1
    15     7     8    1
    16     7    31    1
    17     7    32    1
    18     8     9    1
    19     8    33    1
    20     8    34    1
    21     9    21    1
    22     9    10    1
    23     9    12    1
    24    10    11    1
    25    10    35    1
    26    10    36    1
    27    11    37    1
    28    11    38    1
    29    12    13    1
    30    12    39    1
    31    12    40    1
    32    13    18   ar
    33    13    14   ar
    34    14    15   ar
    35    14    41    1
    36    15    16   ar
    37    15    42    1
    38    16    17   ar
    39    16    43    1
    40    17    18   ar
    41    17    44    1
    42    18    19    1
    43    19    20    1
    44    19    45    1
    45    19    46    1
    46    20    21   am
    47    20    47    1
    48    21    22    2
    49    23    24    1
    50    23    48    1
    51    23    49    1
    52    24    25    1
    53    24    50    1
    54    24    51    1
    55    25    52    1
    56    25    53    1
@<TRIPOS>SUBSTRUCTURE
     1 ZINC001179023006        1 TEMP              0 ****  ****    0 ROOT


##########                                Name:    ZINC000055987960
##########                DOCK_Rotatable_Bonds:                   6
##########                         Heavy_Atoms:                  28
##########                    Molecular_Weight:             404.868
##########                DOCK_Rotatable_Bonds:                   6
##########                       Formal_Charge:          0.00999941
##########                     HBond_Acceptors:                   7
##########                        HBond_Donors:                   1
##########                         Heavy_Atoms:                  28
##########                          Grid_Score:          -26.101484
##########                     Grid_vdw_energy:          -25.251970
##########                      Grid_es_energy:           -0.849514
##########           Internal_energy_repulsive:           14.823121

@<TRIPOS>MOLECULE
ZINC000055987960
 50 52 1 0 0
SMALL
USER_CHARGES


@<TRIPOS>ATOM
      1 C1        -12.4116    4.1327   50.1468 C.3     1  ZINC000055987960   -0.1800
      2 C2        -11.7160    5.4219   50.5887 C.3     1  ZINC000055987960    0.0700
      3 H3        -12.4106    6.0299   51.1684 H       1  ZINC000055987960    0.1200
      4 C4        -10.4962    5.0760   51.4502 C.3     1  ZINC000055987960    0.0800
      5 N5         -9.4954    4.4186   50.5950 N.am    1  ZINC000055987960   -0.6100
      6 C6         -8.9332    3.2488   50.9585 C.2     1  ZINC000055987960    0.5700
      7 O7         -8.1081    2.7212   50.2380 O.2     1  ZINC000055987960   -0.5300
      8 C8         -9.3192    2.6082   52.2309 C.ar    1  ZINC000055987960   -0.1500
      9 C9         -8.4445    2.6321   53.3205 C.ar    1  ZINC000055987960   -0.0700
     10 C10        -8.8078    2.0340   54.5061 C.ar    1  ZINC000055987960   -0.1500
     11 C11       -10.0443    1.4063   54.6202 C.ar    1  ZINC000055987960    0.1700
     12 N12       -10.4093    0.8020   55.8226 N.am    1  ZINC000055987960   -0.6700
     13 C13        -9.7337   -0.2762   56.2672 C.2     1  ZINC000055987960    0.5200
     14 O14        -8.8084   -0.7207   55.6215 O.2     1  ZINC000055987960   -0.5000
     15 C15       -10.1281   -0.9294   57.5667 C.3     1  ZINC000055987960   -0.1100
     16 C16        -9.0097   -1.8213   58.0404 C.ar    1  ZINC000055987960   -0.1000
     17 C17        -9.1063   -3.1936   57.8878 C.ar    1  ZINC000055987960    0.1300
     18 F18       -10.2035   -3.7342   57.3141 F       1  ZINC000055987960   -0.1300
     19 C19        -8.0774   -4.0121   58.3231 C.ar    1  ZINC000055987960   -0.1500
     20 C20        -6.9553   -3.4587   58.9095 C.ar    1  ZINC000055987960   -0.0700
     21 C21        -6.8586   -2.0881   59.0620 C.ar    1  ZINC000055987960   -0.1200
     22 C22        -7.8831   -1.2686   58.6229 C.ar    1  ZINC000055987960    0.0000
     23 Cl23       -7.7606    0.4525   58.8143 Cl      1  ZINC000055987960   -0.0500
     24 C24       -10.9176    1.3808   53.5373 C.ar    1  ZINC000055987960   -0.1200
     25 C25       -10.5626    1.9815   52.3505 C.ar    1  ZINC000055987960   -0.0500
     26 C26        -9.1268    5.0757   49.3311 C.3     1  ZINC000055987960    0.0600
     27 C27       -10.4134    5.4215   48.5727 C.3     1  ZINC000055987960    0.0700
     28 H28       -10.9041    4.5031   48.2507 H       1  ZINC000055987960    0.0700
     29 C29       -10.0720    6.2747   47.3495 C.3     1  ZINC000055987960   -0.1500
     30 O30       -11.2883    6.1526   49.4369 O.3     1  ZINC000055987960   -0.3700
     31 H31       -11.7165    3.5252   49.5672 H       1  ZINC000055987960    0.0600
     32 H32       -12.7359    3.5752   51.0255 H       1  ZINC000055987960    0.0700
     33 H33       -13.2777    4.3793   49.5328 H       1  ZINC000055987960    0.0700
     34 H34       -10.0752    5.9882   51.8734 H       1  ZINC000055987960    0.0800
     35 H35       -10.7932    4.4014   52.2531 H       1  ZINC000055987960    0.1000
     36 H36        -7.4845    3.1188   53.2326 H       1  ZINC000055987960    0.1400
     37 H37        -8.1322    2.0517   55.3485 H       1  ZINC000055987960    0.1300
     38 H38       -11.1495    1.1574   56.3390 H       1  ZINC000055987960    0.4200
     39 H39       -10.3222   -0.1612   58.3153 H       1  ZINC000055987960    0.1200
     40 H40       -11.0285   -1.5249   57.4155 H       1  ZINC000055987960    0.1200
     41 H41        -8.1524   -5.0830   58.2046 H       1  ZINC000055987960    0.1500
     42 H42        -6.1533   -4.0974   59.2492 H       1  ZINC000055987960    0.1500
     43 H43        -5.9814   -1.6566   59.5207 H       1  ZINC000055987960    0.1400
     44 H44       -11.8764    0.8924   53.6290 H       1  ZINC000055987960    0.1500
     45 H45       -11.2408    1.9614   51.5103 H       1  ZINC000055987960    0.1300
     46 H46        -8.5679    5.9878   49.5409 H       1  ZINC000055987960    0.0800
     47 H47        -8.5169    4.4008   48.7306 H       1  ZINC000055987960    0.1100
     48 H48        -9.4027    5.7181   46.6936 H       1  ZINC000055987960    0.0700
     49 H49       -10.9873    6.5202   46.8108 H       1  ZINC000055987960    0.0700
     50 H50        -9.5830    7.1937   47.6725 H       1  ZINC000055987960    0.0700
@<TRIPOS>BOND
     1     1     2    1
     2     1    31    1
     3     1    32    1
     4     1    33    1
     5     2     3    1
     6     2    30    1
     7     2     4    1
     8     4     5    1
     9     4    34    1
    10     4    35    1
    11     5     6   am
    12     5    26    1
    13     6     7    2
    14     6     8    1
    15     8    25   ar
    16     8     9   ar
    17     9    10   ar
    18     9    36    1
    19    10    11   ar
    20    10    37    1
    21    11    12    1
    22    11    24   ar
    23    12    13   am
    24    12    38    1
    25    13    14    2
    26    13    15    1
    27    15    16    1
    28    15    39    1
    29    15    40    1
    30    16    22   ar
    31    16    17   ar
    32    17    18    1
    33    17    19   ar
    34    19    20   ar
    35    19    41    1
    36    20    21   ar
    37    20    42    1
    38    21    22   ar
    39    21    43    1
    40    22    23    1
    41    24    25   ar
    42    24    44    1
    43    25    45    1
    44    26    27    1
    45    26    46    1
    46    26    47    1
    47    27    28    1
    48    27    29    1
    49    27    30    1
    50    29    48    1
    51    29    49    1
    52    29    50    1
@<TRIPOS>SUBSTRUCTURE
     1 ZINC000055987960        1 TEMP              0 ****  ****    0 ROOT


##########                                Name:    ZINC000632456679
##########                DOCK_Rotatable_Bonds:                   6
##########                         Heavy_Atoms:                  24
##########                    Molecular_Weight:              374.82
##########                DOCK_Rotatable_Bonds:                   6
##########                       Formal_Charge:          -0.0299999
##########                     HBond_Acceptors:                   9
##########                        HBond_Donors:                   1
##########                         Heavy_Atoms:                  24
##########                          Grid_Score:          -26.094162
##########                     Grid_vdw_energy:          -24.691771
##########                      Grid_es_energy:           -1.402392
##########           Internal_energy_repulsive:           35.034557

@<TRIPOS>MOLECULE
ZINC000632456679
 40 41 1 0 0
SMALL
USER_CHARGES


@<TRIPOS>ATOM
      1 C1         -0.4684    0.2440   48.3699 C.3     1  ZINC000632456679   -0.1600
      2 C2         -0.9206    1.6486   48.7744 C.3     1  ZINC000632456679    0.1900
      3 C3         -0.1427    2.0979   50.0130 C.3     1  ZINC000632456679   -0.2000
      4 C4         -0.6536    2.6213   47.6239 C.3     1  ZINC000632456679   -0.6300
      5 S5         -1.6487    2.1428   46.1846 S.o2    1  ZINC000632456679    2.4100
      6 C6         -0.4449    1.2246   45.1853 C.3     1  ZINC000632456679   -0.6600
      7 O7         -2.6615    1.2430   46.6132 O.2     1  ZINC000632456679   -0.9300
      8 O8         -2.0191    3.3193   45.4790 O.2     1  ZINC000632456679   -0.9300
      9 N9         -2.3538    1.6320   49.0773 N.am    1  ZINC000632456679   -0.7200
     10 C10        -2.9818    2.7717   49.4279 C.2     1  ZINC000632456679    0.6200
     11 O11        -2.3585    3.8135   49.4944 O.2     1  ZINC000632456679   -0.5000
     12 C12        -4.4254    2.7553   49.7312 C.2     1  ZINC000632456679   -0.0900
     13 C13        -5.2210    3.8361   49.9866 C.2     1  ZINC000632456679   -0.1300
     14 C14        -6.5046    3.2668   50.2113 C.2     1  ZINC000632456679    0.0400
     15 C15        -7.7570    3.9949   50.5338 C.ar    1  ZINC000632456679   -0.0500
     16 C16        -8.6445    4.3432   49.5181 C.ar    1  ZINC000632456679   -0.0600
     17 C17        -9.8080    5.0204   49.8227 C.ar    1  ZINC000632456679   -0.1100
     18 C18       -10.0953    5.3547   51.1338 C.ar    1  ZINC000632456679   -0.0700
     19 C19        -9.2192    5.0125   52.1486 C.ar    1  ZINC000632456679   -0.0800
     20 Cl20       -9.5873    5.4360   53.7915 Cl      1  ZINC000632456679   -0.0400
     21 C21        -8.0527    4.3281   51.8560 C.ar    1  ZINC000632456679    0.1400
     22 F22        -7.1969    3.9935   52.8465 F       1  ZINC000632456679   -0.1100
     23 N23        -6.3615    1.9722   50.0762 N.2     1  ZINC000632456679   -0.3200
     24 O24        -5.2222    1.6724   49.8055 O.3     1  ZINC000632456679    0.1400
     25 H25        -0.6585   -0.4490   49.1896 H       1  ZINC000632456679    0.0900
     26 H26        -1.0226   -0.0760   47.4876 H       1  ZINC000632456679    0.0600
     27 H27         0.5979    0.2564   48.1445 H       1  ZINC000632456679    0.0700
     28 H28         0.9236    2.1103   49.7876 H       1  ZINC000632456679    0.0800
     29 H29        -0.4647    3.0986   50.3010 H       1  ZINC000632456679    0.0800
     30 H30        -0.3328    1.4049   50.8326 H       1  ZINC000632456679    0.0900
     31 H31        -0.9229    3.6314   47.9322 H       1  ZINC000632456679    0.1600
     32 H32         0.4037    2.5914   47.3607 H       1  ZINC000632456679    0.1400
     33 H33        -0.0770    0.3705   45.7539 H       1  ZINC000632456679    0.1300
     34 H34        -0.9239    0.8736   44.2713 H       1  ZINC000632456679    0.1300
     35 H35         0.3895    1.8780   44.9304 H       1  ZINC000632456679    0.1300
     36 H36        -2.8508    0.8006   49.0255 H       1  ZINC000632456679    0.4200
     37 H37        -4.9405    4.8788   50.0125 H       1  ZINC000632456679    0.1900
     38 H38        -8.4224    4.0840   48.4935 H       1  ZINC000632456679    0.1500
     39 H39       -10.4959    5.2902   49.0350 H       1  ZINC000632456679    0.1500
     40 H40       -11.0069    5.8853   51.3661 H       1  ZINC000632456679    0.1500
@<TRIPOS>BOND
     1     1     2    1
     2     1    25    1
     3     1    26    1
     4     1    27    1
     5     2     3    1
     6     2     4    1
     7     2     9    1
     8     3    28    1
     9     3    29    1
    10     3    30    1
    11     4     5    1
    12     4    31    1
    13     4    32    1
    14     5     6    1
    15     5     7    2
    16     5     8    2
    17     6    33    1
    18     6    34    1
    19     6    35    1
    20     9    10   am
    21     9    36    1
    22    10    11    2
    23    10    12    1
    24    12    24    1
    25    12    13    2
    26    13    14    1
    27    13    37    1
    28    14    15    1
    29    14    23    2
    30    15    21   ar
    31    15    16   ar
    32    16    17   ar
    33    16    38    1
    34    17    18   ar
    35    17    39    1
    36    18    19   ar
    37    18    40    1
    38    19    20    1
    39    19    21   ar
    40    21    22    1
    41    23    24    1
@<TRIPOS>SUBSTRUCTURE
     1 ZINC000632456679        1 TEMP              0 ****  ****    0 ROOT


##########                                Name:    ZINC000002873519
##########                DOCK_Rotatable_Bonds:                   5
##########                         Heavy_Atoms:                  25
##########                    Molecular_Weight:             375.207
##########                DOCK_Rotatable_Bonds:                   5
##########                       Formal_Charge:               -0.02
##########                     HBond_Acceptors:                   6
##########                        HBond_Donors:                   0
##########                         Heavy_Atoms:                  25
##########                          Grid_Score:          -26.052538
##########                     Grid_vdw_energy:          -24.636358
##########                      Grid_es_energy:           -1.416179
##########           Internal_energy_repulsive:           10.232413

@<TRIPOS>MOLECULE
ZINC000002873519
 37 39 1 0 0
SMALL
USER_CHARGES


@<TRIPOS>ATOM
      1 C1        -12.7787   -2.4666   57.4202 C.3     1  ZINC000002873519   -0.1500
      2 C2        -13.0199   -2.8466   58.8586 C.2     1  ZINC000002873519    0.4500
      3 O3        -14.1245   -3.1783   59.2187 O.2     1  ZINC000002873519   -0.4800
      4 O4        -12.0071   -2.8167   59.7398 O.3     1  ZINC000002873519   -0.2900
      5 C5        -10.8893   -2.1408   59.3712 C.ar    1  ZINC000002873519    0.1200
      6 C6         -9.8707   -2.7950   58.6985 C.ar    1  ZINC000002873519   -0.1100
      7 C7         -8.7328   -2.1064   58.3228 C.ar    1  ZINC000002873519   -0.0800
      8 C8         -8.5986   -0.7572   58.6142 C.ar    1  ZINC000002873519   -0.0400
      9 Cl9        -7.1624    0.0916   58.1340 Cl      1  ZINC000002873519   -0.0500
     10 C10        -9.6002   -0.0868   59.2829 C.ar    1  ZINC000002873519   -0.0800
     11 C11       -10.7622   -0.7709   59.6655 C.ar    1  ZINC000002873519   -0.0700
     12 C12       -11.8314   -0.0675   60.3755 C.2     1  ZINC000002873519    0.0400
     13 C13       -11.6106    0.4192   61.6490 C.2     1  ZINC000002873519   -0.1900
     14 C14       -10.3756    0.3346   62.4475 C.2     1  ZINC000002873519   -0.2000
     15 C15       -10.6359    0.9480   63.6212 C.2     1  ZINC000002873519    0.1200
     16 C16        -9.6614    1.0902   64.7211 C.ar    1  ZINC000002873519   -0.0400
     17 C17       -10.0270    1.7396   65.9025 C.ar    1  ZINC000002873519   -0.0800
     18 C18        -9.1120    1.8692   66.9261 C.ar    1  ZINC000002873519   -0.1100
     19 C19        -7.8329    1.3574   66.7845 C.ar    1  ZINC000002873519   -0.0200
     20 Cl20       -6.6870    1.5247   68.0778 Cl      1  ZINC000002873519   -0.0600
     21 C21        -7.4641    0.7124   65.6157 C.ar    1  ZINC000002873519   -0.1100
     22 C22        -8.3717    0.5707   64.5870 C.ar    1  ZINC000002873519   -0.0800
     23 O23       -11.9001    1.4146   63.6598 O.3     1  ZINC000002873519   -0.2600
     24 C24       -12.5561    1.1477   62.5162 C.2     1  ZINC000002873519    0.5200
     25 O25       -13.7069    1.4419   62.2521 O.2     1  ZINC000002873519   -0.4200
     26 H26       -12.9422   -1.3963   57.2950 H       1  ZINC000002873519    0.1100
     27 H27       -11.7525   -2.7119   57.1469 H       1  ZINC000002873519    0.1000
     28 H28       -13.4670   -3.0169   56.7788 H       1  ZINC000002873519    0.1100
     29 H29        -9.9658   -3.8456   58.4673 H       1  ZINC000002873519    0.1500
     30 H30        -7.9422   -2.6229   57.7987 H       1  ZINC000002873519    0.1500
     31 H31        -9.4915    0.9638   59.5083 H       1  ZINC000002873519    0.1500
     32 H32       -12.7929    0.0709   59.9036 H       1  ZINC000002873519    0.1500
     33 H33        -9.4453   -0.1278   62.1522 H       1  ZINC000002873519    0.1700
     34 H34       -11.0240    2.1397   66.0139 H       1  ZINC000002873519    0.1400
     35 H35        -9.3935    2.3711   67.8401 H       1  ZINC000002873519    0.1400
     36 H36        -6.4650    0.3158   65.5113 H       1  ZINC000002873519    0.1400
     37 H37        -8.0829    0.0676   63.6761 H       1  ZINC000002873519    0.1400
@<TRIPOS>BOND
     1     1     2    1
     2     1    26    1
     3     1    27    1
     4     1    28    1
     5     2     3    2
     6     2     4    1
     7     4     5    1
     8     5    11   ar
     9     5     6   ar
    10     6     7   ar
    11     6    29    1
    12     7     8   ar
    13     7    30    1
    14     8     9    1
    15     8    10   ar
    16    10    11   ar
    17    10    31    1
    18    11    12    1
    19    12    13    2
    20    12    32    1
    21    13    24    1
    22    13    14    1
    23    14    15    2
    24    14    33    1
    25    15    16    1
    26    15    23    1
    27    16    22   ar
    28    16    17   ar
    29    17    18   ar
    30    17    34    1
    31    18    19   ar
    32    18    35    1
    33    19    20    1
    34    19    21   ar
    35    21    22   ar
    36    21    36    1
    37    22    37    1
    38    23    24    1
    39    24    25    2
@<TRIPOS>SUBSTRUCTURE
     1 ZINC000002873519        1 TEMP              0 ****  ****    0 ROOT


##########                                Name:    ZINC000371438955
##########                DOCK_Rotatable_Bonds:                   4
##########                         Heavy_Atoms:                  25
##########                    Molecular_Weight:             387.499
##########                DOCK_Rotatable_Bonds:                   4
##########                       Formal_Charge:          -0.0299995
##########                     HBond_Acceptors:                   9
##########                        HBond_Donors:                   1
##########                         Heavy_Atoms:                  25
##########                          Grid_Score:          -26.038948
##########                     Grid_vdw_energy:          -25.574389
##########                      Grid_es_energy:           -0.464559
##########           Internal_energy_repulsive:           22.400303

@<TRIPOS>MOLECULE
ZINC000371438955
 47 49 1 0 0
SMALL
USER_CHARGES


@<TRIPOS>ATOM
      1 C1         -3.5892    1.1931   50.6608 C.3     1  ZINC000371438955   -0.6800
      2 S2         -3.7692    2.8769   51.3110 S.o2    1  ZINC000371438955    2.6000
      3 O3         -4.0583    2.8459   52.7020 O.2     1  ZINC000371438955   -0.9500
      4 O4         -2.7519    3.7230   50.7928 O.2     1  ZINC000371438955   -0.9500
      5 N5         -5.1627    3.4412   50.6168 N.am    1  ZINC000371438955   -0.9900
      6 C6         -5.6033    4.7711   50.9262 C.3     1  ZINC000371438955    0.1300
      7 C7         -6.4469    4.7045   52.2103 C.3     1  ZINC000371438955   -0.1700
      8 C8         -7.8085    4.2135   51.9459 C.3     1  ZINC000371438955    0.1400
      9 N9         -7.7598    2.8683   51.3258 N.am    1  ZINC000371438955   -0.6200
     10 C10        -8.0190    1.7744   52.0693 C.2     1  ZINC000371438955    0.7100
     11 O11        -7.9793    0.6705   51.5612 O.2     1  ZINC000371438955   -0.5800
     12 N12        -8.3222    1.9042   53.3761 N.am    1  ZINC000371438955   -0.7400
     13 C13        -8.6039    0.7152   54.1844 C.3     1  ZINC000371438955    0.2000
     14 H14        -8.0304   -0.1211   53.7848 H       1  ZINC000371438955    0.1100
     15 C15       -10.0829    0.3891   54.0702 C.3     1  ZINC000371438955   -0.1300
     16 C16       -10.3782   -0.8799   54.8821 C.3     1  ZINC000371438955   -0.1100
     17 S17       -10.2886   -0.4306   56.6395 S.3     1  ZINC000371438955   -0.1000
     18 C18        -8.7964    0.5076   56.7222 C.ar    1  ZINC000371438955   -0.1100
     19 C19        -8.2668    0.7764   57.9876 C.ar    1  ZINC000371438955    0.1100
     20 F20        -8.8948    0.3102   59.0891 F       1  ZINC000371438955   -0.1300
     21 C21        -7.1083    1.5131   58.1216 C.ar    1  ZINC000371438955   -0.1300
     22 C22        -6.4705    1.9908   56.9908 C.ar    1  ZINC000371438955   -0.1000
     23 C23        -6.9892    1.7245   55.7425 C.ar    1  ZINC000371438955   -0.1000
     24 C24        -8.1566    0.9750   55.5928 C.ar    1  ZINC000371438955   -0.0800
     25 C25        -7.4372    2.7293   49.9332 C.3     1  ZINC000371438955    0.1000
     26 C26        -5.9146    2.5547   49.6870 C.3     1  ZINC000371438955    0.0900
     27 H27        -4.4564    0.5983   50.9473 H       1  ZINC000371438955    0.1300
     28 H28        -3.5165    1.2291   49.5738 H       1  ZINC000371438955    0.1300
     29 H29        -2.6864    0.7400   51.0703 H       1  ZINC000371438955    0.1300
     30 H30        -4.7402    5.4176   51.0853 H       1  ZINC000371438955    0.0800
     31 H31        -6.2088    5.1587   50.1070 H       1  ZINC000371438955    0.0800
     32 H32        -5.9603    4.0361   52.9206 H       1  ZINC000371438955    0.0800
     33 H33        -6.5076    5.7013   52.6473 H       1  ZINC000371438955    0.0900
     34 H34        -8.3607    4.1585   52.8840 H       1  ZINC000371438955    0.0900
     35 H35        -8.3161    4.9034   51.2716 H       1  ZINC000371438955    0.0700
     36 H36        -8.3539    2.7848   53.7814 H       1  ZINC000371438955    0.4000
     37 H37       -10.6708    1.2187   54.4632 H       1  ZINC000371438955    0.0900
     38 H38       -10.3398    0.2211   53.0244 H       1  ZINC000371438955    0.1000
     39 H39       -11.3760   -1.2485   54.6441 H       1  ZINC000371438955    0.1200
     40 H40        -9.6356   -1.6454   54.6568 H       1  ZINC000371438955    0.1000
     41 H41        -6.7025    1.7157   59.1016 H       1  ZINC000371438955    0.1400
     42 H42        -5.5659    2.5729   57.0865 H       1  ZINC000371438955    0.1300
     43 H43        -6.4848    2.1035   54.8659 H       1  ZINC000371438955    0.1400
     44 H44        -7.9609    1.8603   49.5349 H       1  ZINC000371438955    0.0800
     45 H45        -7.7778    3.6179   49.4019 H       1  ZINC000371438955    0.0900
     46 H46        -5.6806    2.8181   48.6555 H       1  ZINC000371438955    0.0800
     47 H47        -5.6334    1.5177   49.8703 H       1  ZINC000371438955    0.1000
@<TRIPOS>BOND
     1     1     2    1
     2     1    27    1
     3     1    28    1
     4     1    29    1
     5     2     3    2
     6     2     4    2
     7     2     5   am
     8     5    26    1
     9     5     6    1
    10     6     7    1
    11     6    30    1
    12     6    31    1
    13     7     8    1
    14     7    32    1
    15     7    33    1
    16     8     9    1
    17     8    34    1
    18     8    35    1
    19     9    10   am
    20     9    25    1
    21    10    11    2
    22    10    12   am
    23    12    13    1
    24    12    36    1
    25    13    14    1
    26    13    24    1
    27    13    15    1
    28    15    16    1
    29    15    37    1
    30    15    38    1
    31    16    17    1
    32    16    39    1
    33    16    40    1
    34    17    18    1
    35    18    24   ar
    36    18    19   ar
    37    19    20    1
    38    19    21   ar
    39    21    22   ar
    40    21    41    1
    41    22    23   ar
    42    22    42    1
    43    23    24   ar
    44    23    43    1
    45    25    26    1
    46    25    44    1
    47    25    45    1
    48    26    46    1
    49    26    47    1
@<TRIPOS>SUBSTRUCTURE
     1 ZINC000371438955        1 TEMP              0 ****  ****    0 ROOT


##########                                Name:    ZINC000002634904
##########                DOCK_Rotatable_Bonds:                   7
##########                         Heavy_Atoms:                  31
##########                    Molecular_Weight:             423.498
##########                DOCK_Rotatable_Bonds:                   7
##########                       Formal_Charge:        -7.45058e-08
##########                     HBond_Acceptors:                   7
##########                        HBond_Donors:                   1
##########                         Heavy_Atoms:                  31
##########                          Grid_Score:          -26.029224
##########                     Grid_vdw_energy:          -24.914825
##########                      Grid_es_energy:           -1.114399
##########           Internal_energy_repulsive:            7.662364

@<TRIPOS>MOLECULE
ZINC000002634904
 48 51 1 0 0
SMALL
USER_CHARGES


@<TRIPOS>ATOM
      1 N1          0.0763    4.8319   45.8800 N.1     1  ZINC000002634904   -0.4100
      2 C2         -0.5666    4.3594   46.6885 C.1     1  ZINC000002634904    0.2500
      3 C3         -1.3770    3.7637   47.7078 C.ar    1  ZINC000002634904   -0.0400
      4 C4         -1.2085    4.1369   49.0442 C.ar    1  ZINC000002634904   -0.0500
      5 C5         -1.9895    3.5620   50.0217 C.ar    1  ZINC000002634904   -0.1400
      6 C6         -2.9453    2.6107   49.6804 C.ar    1  ZINC000002634904    0.1700
      7 N7         -3.7351    2.0302   50.6737 N.am    1  ZINC000002634904   -0.6700
      8 C8         -5.0749    1.9920   50.5328 C.2     1  ZINC000002634904    0.5400
      9 O9         -5.5942    2.4622   49.5429 O.2     1  ZINC000002634904   -0.5000
     10 C10        -5.9277    1.3651   51.6056 C.3     1  ZINC000002634904   -0.1700
     11 S11        -7.4164    2.3644   51.8536 S.3     1  ZINC000002634904    0.1300
     12 C12        -8.0854    1.5689   53.2763 C.ar    1  ZINC000002634904    0.2100
     13 N13        -8.6946    0.3959   53.1436 N.ar    1  ZINC000002634904   -0.2900
     14 N14        -9.1979   -0.2213   54.1544 N.ar    1  ZINC000002634904   -0.1600
     15 C15        -9.1203    0.3053   55.3719 C.ar    1  ZINC000002634904    0.0600
     16 C16        -9.6988   -0.4041   56.5370 C.ar    1  ZINC000002634904   -0.0500
     17 C17        -9.0358   -1.4994   57.0895 C.ar    1  ZINC000002634904   -0.0800
     18 C18        -9.5796   -2.1560   58.1745 C.ar    1  ZINC000002634904   -0.1200
     19 C19       -10.7802   -1.7300   58.7138 C.ar    1  ZINC000002634904   -0.1000
     20 C20       -11.4425   -0.6441   58.1700 C.ar    1  ZINC000002634904   -0.1200
     21 C21       -10.9056    0.0245   57.0888 C.ar    1  ZINC000002634904   -0.0800
     22 C22        -8.4786    1.5492   55.5375 C.ar    1  ZINC000002634904    0.2300
     23 C23        -8.3694    2.1728   56.8770 C.ar    1  ZINC000002634904   -0.0700
     24 C24        -7.5781    1.5824   57.8618 C.ar    1  ZINC000002634904   -0.0700
     25 C25        -7.4800    2.1681   59.1073 C.ar    1  ZINC000002634904   -0.1200
     26 C26        -8.1647    3.3389   59.3800 C.ar    1  ZINC000002634904   -0.0900
     27 C27        -8.9517    3.9291   58.4073 C.ar    1  ZINC000002634904   -0.1200
     28 C28        -9.0530    3.3558   57.1562 C.ar    1  ZINC000002634904   -0.0700
     29 N29        -7.9681    2.1484   54.4643 N.ar    1  ZINC000002634904   -0.4400
     30 C30        -3.1162    2.2371   48.3515 C.ar    1  ZINC000002634904   -0.1200
     31 C31        -2.3424    2.8117   47.3680 C.ar    1  ZINC000002634904   -0.0500
     32 H32        -0.4662    4.8752   49.3098 H       1  ZINC000002634904    0.1400
     33 H33        -1.8596    3.8497   51.0545 H       1  ZINC000002634904    0.1400
     34 H34        -3.3197    1.6541   51.4655 H       1  ZINC000002634904    0.4200
     35 H35        -6.2127    0.3581   51.3009 H       1  ZINC000002634904    0.1300
     36 H36        -5.3632    1.3169   52.5367 H       1  ZINC000002634904    0.1300
     37 H37        -8.0988   -1.8333   56.6689 H       1  ZINC000002634904    0.1300
     38 H38        -9.0670   -3.0044   58.6033 H       1  ZINC000002634904    0.1300
     39 H39       -11.2022   -2.2476   59.5626 H       1  ZINC000002634904    0.1300
     40 H40       -12.3796   -0.3161   58.5953 H       1  ZINC000002634904    0.1300
     41 H41       -11.4234    0.8723   56.6653 H       1  ZINC000002634904    0.1200
     42 H42        -7.0434    0.6681   57.6501 H       1  ZINC000002634904    0.1300
     43 H43        -6.8677    1.7115   59.8708 H       1  ZINC000002634904    0.1300
     44 H44        -8.0848    3.7937   60.3563 H       1  ZINC000002634904    0.1300
     45 H45        -9.4842    4.8429   58.6261 H       1  ZINC000002634904    0.1300
     46 H46        -9.6677    3.8175   56.3977 H       1  ZINC000002634904    0.1300
     47 H47        -3.8595    1.4985   48.0902 H       1  ZINC000002634904    0.1500
     48 H48        -2.4759    2.5215   46.3364 H       1  ZINC000002634904    0.1400
@<TRIPOS>BOND
     1     1     2    3
     2     2     3    1
     3     3    31   ar
     4     3     4   ar
     5     4     5   ar
     6     4    32    1
     7     5     6   ar
     8     5    33    1
     9     6     7    1
    10     6    30   ar
    11     7     8   am
    12     7    34    1
    13     8     9    2
    14     8    10    1
    15    10    11    1
    16    10    35    1
    17    10    36    1
    18    11    12    1
    19    12    29   ar
    20    12    13   ar
    21    13    14   ar
    22    14    15   ar
    23    15    16    1
    24    15    22   ar
    25    16    21   ar
    26    16    17   ar
    27    17    18   ar
    28    17    37    1
    29    18    19   ar
    30    18    38    1
    31    19    20   ar
    32    19    39    1
    33    20    21   ar
    34    20    40    1
    35    21    41    1
    36    22    23    1
    37    22    29   ar
    38    23    28   ar
    39    23    24   ar
    40    24    25   ar
    41    24    42    1
    42    25    26   ar
    43    25    43    1
    44    26    27   ar
    45    26    44    1
    46    27    28   ar
    47    27    45    1
    48    28    46    1
    49    30    31   ar
    50    30    47    1
    51    31    48    1
@<TRIPOS>SUBSTRUCTURE
     1 ZINC000002634904        1 TEMP              0 ****  ****    0 ROOT


##########                                Name:    ZINC001708427409
##########                DOCK_Rotatable_Bonds:                   6
##########                         Heavy_Atoms:                  24
##########                    Molecular_Weight:             334.505
##########                DOCK_Rotatable_Bonds:                   6
##########                       Formal_Charge:          -0.0200006
##########                     HBond_Acceptors:                   5
##########                        HBond_Donors:                   1
##########                         Heavy_Atoms:                  24
##########                          Grid_Score:          -25.996634
##########                     Grid_vdw_energy:          -25.683443
##########                      Grid_es_energy:           -0.313191
##########           Internal_energy_repulsive:           19.364632

@<TRIPOS>MOLECULE
ZINC001708427409
 58 60 1 0 0
SMALL
USER_CHARGES


@<TRIPOS>ATOM
      1 C1        -10.7080    0.1549   55.4192 C.3     1  ZINC001708427409   -0.1500
      2 C2         -9.8744   -0.3333   54.2328 C.3     1  ZINC001708427409   -0.1200
      3 C3        -10.0977    0.5941   53.0366 C.3     1  ZINC001708427409    0.0000
      4 H4        -10.4591    1.5604   53.3885 H       1  ZINC001708427409    0.0800
      5 C5        -11.1334   -0.0262   52.0967 C.3     1  ZINC001708427409   -0.1400
      6 C6         -8.7980    0.7828   52.2977 C.2     1  ZINC001708427409    0.1800
      7 N7         -8.1492   -0.1297   51.6310 N.2     1  ZINC001708427409   -0.2800
      8 N8         -7.0792    0.3714   51.1251 N.2     1  ZINC001708427409   -0.3200
      9 C9         -6.9872    1.6408   51.4444 C.2     1  ZINC001708427409    0.3600
     10 N10        -5.9713    2.5103   51.0803 N.3     1  ZINC001708427409   -0.4200
     11 C11        -5.6504    2.3797   49.6319 C.3     1  ZINC001708427409    0.0400
     12 C12        -4.2132    2.9286   49.4957 C.3     1  ZINC001708427409   -0.0900
     13 H13        -4.2342    3.9676   49.1673 H       1  ZINC001708427409    0.0900
     14 C14        -3.4100    2.0768   48.5108 C.3     1  ZINC001708427409   -0.1500
     15 C15        -3.6066    2.8254   50.9208 C.3     1  ZINC001708427409   -0.0800
     16 H16        -2.6933    2.2306   50.9169 H       1  ZINC001708427409    0.0900
     17 C17        -3.3294    4.2520   51.3960 C.3     1  ZINC001708427409   -0.1100
     18 C18        -3.0294    4.2483   52.8947 C.3     1  ZINC001708427409   -0.1200
     19 C19        -4.2894    3.8124   53.6394 C.3     1  ZINC001708427409   -0.1100
     20 C20        -4.7055    2.4181   53.2169 C.3     1  ZINC001708427409   -0.1000
     21 C21        -4.6997    2.1462   51.7417 C.3     1  ZINC001708427409    0.1000
     22 H22        -4.5819    1.0701   51.6145 H       1  ZINC001708427409    0.0600
     23 N23        -8.0838    1.9445   52.1974 N.pl3   1  ZINC001708427409   -0.4700
     24 C24        -8.4210    3.2434   52.7852 C.3     1  ZINC001708427409    0.0800
     25 C25        -9.3593    4.0010   51.8436 C.3     1  ZINC001708427409    0.1200
     26 C26        -9.8583    5.2717   52.5348 C.3     1  ZINC001708427409   -0.1800
     27 C27        -8.6056    4.3775   50.5666 C.3     1  ZINC001708427409   -0.1500
     28 O28       -10.4737    3.1703   51.5117 O.3     1  ZINC001708427409   -0.5400
     29 H29       -11.7637    0.1502   55.1480 H       1  ZINC001708427409    0.0600
     30 H30       -10.5489   -0.5059   56.2714 H       1  ZINC001708427409    0.0600
     31 H31       -10.4053    1.1680   55.6835 H       1  ZINC001708427409    0.0500
     32 H32        -8.8187   -0.3287   54.5040 H       1  ZINC001708427409    0.0700
     33 H33       -10.1771   -1.3465   53.9685 H       1  ZINC001708427409    0.0800
     34 H34       -12.0735   -0.1627   52.6311 H       1  ZINC001708427409    0.0700
     35 H35       -11.2925    0.6345   51.2445 H       1  ZINC001708427409    0.0500
     36 H36       -10.7720   -0.9925   51.7447 H       1  ZINC001708427409    0.0700
     37 H37        -5.6876    1.3336   49.3277 H       1  ZINC001708427409    0.0600
     38 H38        -6.3419    2.9743   49.0348 H       1  ZINC001708427409    0.0800
     39 H39        -3.8785    2.1192   47.5276 H       1  ZINC001708427409    0.0600
     40 H40        -2.3919    2.4603   48.4450 H       1  ZINC001708427409    0.0600
     41 H41        -3.3874    1.0439   48.8581 H       1  ZINC001708427409    0.0600
     42 H42        -2.4722    4.6539   50.8558 H       1  ZINC001708427409    0.0600
     43 H43        -4.2029    4.8747   51.2028 H       1  ZINC001708427409    0.0700
     44 H44        -2.2198    3.5494   53.1044 H       1  ZINC001708427409    0.0600
     45 H45        -2.7439    5.2507   53.2136 H       1  ZINC001708427409    0.0600
     46 H46        -4.0933    3.8192   54.7115 H       1  ZINC001708427409    0.0600
     47 H47        -5.0969    4.5104   53.4182 H       1  ZINC001708427409    0.0600
     48 H48        -4.0306    1.7032   53.6877 H       1  ZINC001708427409    0.0600
     49 H49        -5.7103    2.2322   53.5963 H       1  ZINC001708427409    0.0700
     50 H50        -8.9147    3.0908   53.7449 H       1  ZINC001708427409    0.0900
     51 H51        -7.5096    3.8227   52.9335 H       1  ZINC001708427409    0.1000
     52 H52        -9.0083    5.9053   52.7879 H       1  ZINC001708427409    0.0700
     53 H53       -10.5269    5.8114   51.8640 H       1  ZINC001708427409    0.0700
     54 H54       -10.3953    5.0035   53.4445 H       1  ZINC001708427409    0.0600
     55 H55        -8.1796    3.4800   50.1181 H       1  ZINC001708427409    0.0700
     56 H56        -9.2944    4.8438   49.8622 H       1  ZINC001708427409    0.0700
     57 H57        -7.8056    5.0770   50.8096 H       1  ZINC001708427409    0.0700
     58 H58       -11.1005    3.5794   50.8993 H       1  ZINC001708427409    0.3800
@<TRIPOS>BOND
     1     1     2    1
     2     1    29    1
     3     1    30    1
     4     1    31    1
     5     2     3    1
     6     2    32    1
     7     2    33    1
     8     3     4    1
     9     3     5    1
    10     3     6    1
    11     5    34    1
    12     5    35    1
    13     5    36    1
    14     6    23    1
    15     6     7    2
    16     7     8    1
    17     8     9    2
    18     9    10    1
    19     9    23    1
    20    10    21    1
    21    10    11    1
    22    11    12    1
    23    11    37    1
    24    11    38    1
    25    12    13    1
    26    12    14    1
    27    12    15    1
    28    14    39    1
    29    14    40    1
    30    14    41    1
    31    15    16    1
    32    15    21    1
    33    15    17    1
    34    17    18    1
    35    17    42    1
    36    17    43    1
    37    18    19    1
    38    18    44    1
    39    18    45    1
    40    19    20    1
    41    19    46    1
    42    19    47    1
    43    20    21    1
    44    20    48    1
    45    20    49    1
    46    21    22    1
    47    23    24    1
    48    24    25    1
    49    24    50    1
    50    24    51    1
    51    25    26    1
    52    25    27    1
    53    25    28    1
    54    26    52    1
    55    26    53    1
    56    26    54    1
    57    27    55    1
    58    27    56    1
    59    27    57    1
    60    28    58    1
@<TRIPOS>SUBSTRUCTURE
     1 ZINC001708427409        1 TEMP              0 ****  ****    0 ROOT


##########                                Name:    ZINC000179211660
##########                DOCK_Rotatable_Bonds:                   6
##########                         Heavy_Atoms:                  23
##########                    Molecular_Weight:             385.208
##########                DOCK_Rotatable_Bonds:                   6
##########                       Formal_Charge:        -1.78814e-07
##########                     HBond_Acceptors:                   6
##########                        HBond_Donors:                   1
##########                         Heavy_Atoms:                  23
##########                          Grid_Score:          -25.979023
##########                     Grid_vdw_energy:          -25.434851
##########                      Grid_es_energy:           -0.544173
##########           Internal_energy_repulsive:           14.297759

@<TRIPOS>MOLECULE
ZINC000179211660
 38 39 1 0 0
SMALL
USER_CHARGES


@<TRIPOS>ATOM
      1 C1         -6.5868    3.7438   54.2540 C.3     1  ZINC000179211660    0.0300
      2 O2         -6.3552    3.3256   52.9073 O.3     1  ZINC000179211660   -0.2700
      3 C3         -6.9701    2.1835   52.5015 C.ar    1  ZINC000179211660    0.1500
      4 C4         -7.7788    1.4795   53.3816 C.ar    1  ZINC000179211660   -0.2200
      5 C5         -8.4032    0.3190   52.9664 C.ar    1  ZINC000179211660   -0.0700
      6 C6         -8.2222   -0.1409   51.6754 C.ar    1  ZINC000179211660   -0.1700
      7 C7         -7.4161    0.5589   50.7963 C.ar    1  ZINC000179211660   -0.0700
      8 C8         -6.7946    1.7229   51.2045 C.ar    1  ZINC000179211660   -0.1500
      9 C9         -5.9167    2.4853   50.2458 C.3     1  ZINC000179211660    0.1800
     10 N10        -4.5710    1.9064   50.2500 N.am    1  ZINC000179211660   -0.6200
     11 C11        -4.0992    1.1578   51.4177 C.3     1  ZINC000179211660    0.0700
     12 C12        -3.7669    2.0625   49.1797 C.2     1  ZINC000179211660    0.7000
     13 O13        -4.1578    2.6851   48.2112 O.2     1  ZINC000179211660   -0.5300
     14 N14        -2.5295    1.5284   49.1829 N.am    1  ZINC000179211660   -0.6800
     15 C15        -1.6935    1.6906   48.0704 C.ar    1  ZINC000179211660    0.1900
     16 C16        -1.8343    0.8594   46.9684 C.ar    1  ZINC000179211660   -0.1400
     17 C17        -1.0077    1.0219   45.8706 C.ar    1  ZINC000179211660    0.1500
     18 F18        -1.1443    0.2129   44.7973 F       1  ZINC000179211660   -0.1100
     19 C19        -0.0408    2.0138   45.8711 C.ar    1  ZINC000179211660   -0.1300
     20 Br20        1.0867    2.2337   44.3689 Br      1  ZINC000179211660   -0.0100
     21 C21         0.1011    2.8443   46.9687 C.ar    1  ZINC000179211660   -0.0700
     22 C22        -0.7252    2.6887   48.0662 C.ar    1  ZINC000179211660    0.0600
     23 F23        -0.5860    3.5000   49.1376 F       1  ZINC000179211660   -0.1300
     24 H24        -6.0389    4.6661   54.4473 H       1  ZINC000179211660    0.1000
     25 H25        -7.6527    3.9163   54.4026 H       1  ZINC000179211660    0.0500
     26 H26        -6.2453    2.9679   54.9392 H       1  ZINC000179211660    0.0500
     27 H27        -7.9199    1.8380   54.3905 H       1  ZINC000179211660    0.1300
     28 H28        -9.0328   -0.2295   53.6513 H       1  ZINC000179211660    0.1200
     29 H29        -8.7108   -1.0484   51.3529 H       1  ZINC000179211660    0.1200
     30 H30        -7.2760    0.1974   49.7882 H       1  ZINC000179211660    0.1300
     31 H31        -6.3359    2.4232   49.2415 H       1  ZINC000179211660    0.0900
     32 H32        -5.8639    3.5297   50.5534 H       1  ZINC000179211660    0.1000
     33 H33        -4.3543    0.1045   51.3013 H       1  ZINC000179211660    0.0600
     34 H34        -3.0177    1.2624   51.5036 H       1  ZINC000179211660    0.0600
     35 H35        -4.5749    1.5496   52.3168 H       1  ZINC000179211660    0.0800
     36 H36        -2.2176    1.0318   49.9555 H       1  ZINC000179211660    0.4100
     37 H37        -2.5881    0.0860   46.9676 H       1  ZINC000179211660    0.1800
     38 H38         0.8557    3.6169   46.9666 H       1  ZINC000179211660    0.1600
@<TRIPOS>BOND
     1     1     2    1
     2     1    24    1
     3     1    25    1
     4     1    26    1
     5     2     3    1
     6     3     8   ar
     7     3     4   ar
     8     4     5   ar
     9     4    27    1
    10     5     6   ar
    11     5    28    1
    12     6     7   ar
    13     6    29    1
    14     7     8   ar
    15     7    30    1
    16     8     9    1
    17     9    10    1
    18     9    31    1
    19     9    32    1
    20    10    11    1
    21    10    12   am
    22    11    33    1
    23    11    34    1
    24    11    35    1
    25    12    13    2
    26    12    14   am
    27    14    15    1
    28    14    36    1
    29    15    22   ar
    30    15    16   ar
    31    16    17   ar
    32    16    37    1
    33    17    18    1
    34    17    19   ar
    35    19    20    1
    36    19    21   ar
    37    21    22   ar
    38    21    38    1
    39    22    23    1
@<TRIPOS>SUBSTRUCTURE
     1 ZINC000179211660        1 TEMP              0 ****  ****    0 ROOT


##########                                Name:    ZINC000845755710
##########                DOCK_Rotatable_Bonds:                   3
##########                         Heavy_Atoms:                  24
##########                    Molecular_Weight:             349.814
##########                DOCK_Rotatable_Bonds:                   3
##########                       Formal_Charge:         -0.00999974
##########                     HBond_Acceptors:                   6
##########                        HBond_Donors:                   0
##########                         Heavy_Atoms:                  24
##########                          Grid_Score:          -25.941250
##########                     Grid_vdw_energy:          -25.185625
##########                      Grid_es_energy:           -0.755625
##########           Internal_energy_repulsive:           20.380856

@<TRIPOS>MOLECULE
ZINC000845755710
 44 47 1 0 0
SMALL
USER_CHARGES


@<TRIPOS>ATOM
      1 C1         -7.9200    2.9798   49.9037 C.3     1  ZINC000845755710   -0.1700
      2 C2         -7.8244    2.5937   51.3811 C.3     1  ZINC000845755710    0.2600
      3 C3         -6.3877    2.7860   51.8707 C.3     1  ZINC000845755710   -0.0900
      4 C4         -5.4746    1.7675   51.1844 C.3     1  ZINC000845755710   -0.1300
      5 C5         -4.0434    1.9402   51.7026 C.3     1  ZINC000845755710    0.1100
      6 N6         -3.6371    3.3392   51.5123 N.am    1  ZINC000845755710   -0.6000
      7 C7         -2.5012    3.6408   50.8526 C.2     1  ZINC000845755710    0.5900
      8 O8         -2.1758    4.8033   50.7016 O.2     1  ZINC000845755710   -0.5200
      9 C9         -1.6551    2.5646   50.3151 C.2     1  ZINC000845755710   -0.2200
     10 C10        -0.7393    1.8226   50.9948 C.2     1  ZINC000845755710    0.0600
     11 O11        -0.1672    0.9387   50.1691 O.3     1  ZINC000845755710   -0.1800
     12 C12        -0.6624    1.0432   48.9182 C.ar    1  ZINC000845755710    0.0500
     13 C13        -0.3992    0.3669   47.7337 C.ar    1  ZINC000845755710   -0.0900
     14 C14        -1.0800    0.7023   46.5826 C.ar    1  ZINC000845755710   -0.0800
     15 C15        -2.0303    1.7133   46.5924 C.ar    1  ZINC000845755710   -0.0400
     16 Cl16       -2.8760    2.1206   45.1320 Cl      1  ZINC000845755710   -0.0600
     17 C17        -2.3051    2.3955   47.7598 C.ar    1  ZINC000845755710   -0.0500
     18 C18        -1.6276    2.0608   48.9273 C.ar    1  ZINC000845755710   -0.0900
     19 C19        -4.4930    4.4033   52.0543 C.3     1  ZINC000845755710    0.1000
     20 C20        -5.9192    4.2030   51.5322 C.3     1  ZINC000845755710   -0.1300
     21 O21        -8.7100    3.4206   52.1547 O.3     1  ZINC000845755710   -0.3700
     22 C22        -9.9218    2.6398   52.2902 C.3     1  ZINC000845755710    0.0100
     23 C23        -9.3574    1.2030   52.4200 C.3     1  ZINC000845755710    0.0200
     24 O24        -8.2104    1.2228   51.5466 O.3     1  ZINC000845755710   -0.3800
     25 H25        -8.9432    2.8367   49.5562 H       1  ZINC000845755710    0.0600
     26 H26        -7.6382    4.0258   49.7826 H       1  ZINC000845755710    0.0800
     27 H27        -7.2468    2.3521   49.3199 H       1  ZINC000845755710    0.0800
     28 H28        -6.3491    2.6388   52.9500 H       1  ZINC000845755710    0.0900
     29 H29        -5.8229    0.7588   51.4068 H       1  ZINC000845755710    0.0800
     30 H30        -5.4935    1.9299   50.1067 H       1  ZINC000845755710    0.0800
     31 H31        -4.0059    1.6898   52.7627 H       1  ZINC000845755710    0.0700
     32 H32        -3.3720    1.2858   51.1465 H       1  ZINC000845755710    0.1000
     33 H33        -0.5085    1.9310   52.0442 H       1  ZINC000845755710    0.2200
     34 H34         0.3389   -0.4213   47.7142 H       1  ZINC000845755710    0.1500
     35 H35        -0.8715    0.1733   45.6645 H       1  ZINC000845755710    0.1500
     36 H36        -3.0448    3.1826   47.7677 H       1  ZINC000845755710    0.1400
     37 H37        -4.4922    4.3539   53.1432 H       1  ZINC000845755710    0.0800
     38 H38        -4.1183    5.3743   51.7304 H       1  ZINC000845755710    0.0900
     39 H39        -5.9338    4.3427   50.4512 H       1  ZINC000845755710    0.0700
     40 H40        -6.5838    4.9279   52.0021 H       1  ZINC000845755710    0.0800
     41 H41       -10.4718    2.9255   53.1868 H       1  ZINC000845755710    0.1100
     42 H42       -10.5482    2.7343   51.4032 H       1  ZINC000845755710    0.0800
     43 H43        -9.0558    0.9990   53.4475 H       1  ZINC000845755710    0.0800
     44 H44       -10.0884    0.4698   52.0793 H       1  ZINC000845755710    0.1000
@<TRIPOS>BOND
     1     1     2    1
     2     1    25    1
     3     1    26    1
     4     1    27    1
     5     2    24    1
     6     2     3    1
     7     2    21    1
     8     3    20    1
     9     3     4    1
    10     3    28    1
    11     4     5    1
    12     4    29    1
    13     4    30    1
    14     5     6    1
    15     5    31    1
    16     5    32    1
    17     6     7   am
    18     6    19    1
    19     7     8    2
    20     7     9    1
    21     9    18    1
    22     9    10    2
    23    10    11    1
    24    10    33    1
    25    11    12    1
    26    12    18   ar
    27    12    13   ar
    28    13    14   ar
    29    13    34    1
    30    14    15   ar
    31    14    35    1
    32    15    16    1
    33    15    17   ar
    34    17    18   ar
    35    17    36    1
    36    19    20    1
    37    19    37    1
    38    19    38    1
    39    20    39    1
    40    20    40    1
    41    21    22    1
    42    22    23    1
    43    22    41    1
    44    22    42    1
    45    23    24    1
    46    23    43    1
    47    23    44    1
@<TRIPOS>SUBSTRUCTURE
     1 ZINC000845755710        1 TEMP              0 ****  ****    0 ROOT


##########                                Name:    ZINC000080099940
##########                DOCK_Rotatable_Bonds:                   4
##########                         Heavy_Atoms:                  26
##########                    Molecular_Weight:             343.388
##########                DOCK_Rotatable_Bonds:                   4
##########                       Formal_Charge:        -3.42727e-07
##########                     HBond_Acceptors:                   6
##########                        HBond_Donors:                   1
##########                         Heavy_Atoms:                  26
##########                          Grid_Score:          -25.850531
##########                     Grid_vdw_energy:          -25.339975
##########                      Grid_es_energy:           -0.510555
##########           Internal_energy_repulsive:            3.018497

@<TRIPOS>MOLECULE
ZINC000080099940
 43 46 1 0 0
SMALL
USER_CHARGES


@<TRIPOS>ATOM
      1 C1         -8.2608    1.7280   58.5044 C.3     1  ZINC000080099940   -0.1100
      2 C2         -8.0443    1.6096   57.0177 C.2     1  ZINC000080099940   -0.0700
      3 C3         -6.9099    2.1014   56.4512 C.2     1  ZINC000080099940   -0.0900
      4 C4         -6.7248    1.9815   55.0585 C.2     1  ZINC000080099940    0.2300
      5 N5         -5.7403    2.3611   54.2574 N.2     1  ZINC000080099940   -0.4800
      6 C6         -6.0411    2.0137   52.9960 C.2     1  ZINC000080099940    0.1000
      7 C7         -5.1964    2.2608   51.8016 C.ar    1  ZINC000080099940   -0.0200
      8 C8         -3.8084    2.1769   51.8989 C.ar    1  ZINC000080099940   -0.0800
      9 C9         -3.0253    2.4065   50.7877 C.ar    1  ZINC000080099940   -0.1200
     10 C10        -3.6189    2.7219   49.5710 C.ar    1  ZINC000080099940    0.1500
     11 N11        -2.8231    2.9547   48.4459 N.am    1  ZINC000080099940   -0.6500
     12 C12        -2.1865    1.9289   47.8469 C.2     1  ZINC000080099940    0.5700
     13 O13        -2.3042    0.8018   48.2849 O.2     1  ZINC000080099940   -0.5000
     14 C14        -1.3415    2.1761   46.6523 C.ar    1  ZINC000080099940    0.1300
     15 C15        -0.5170    1.1706   46.1463 C.ar    1  ZINC000080099940   -0.1700
     16 C16         0.2528    1.4534   45.0267 C.ar    1  ZINC000080099940    0.1600
     17 N17         0.1797    2.6555   44.4819 N.ar    1  ZINC000080099940   -0.5000
     18 C18        -0.6106    3.5837   44.9857 C.ar    1  ZINC000080099940    0.3200
     19 C19        -0.6590    4.9390   44.3284 C.3     1  ZINC000080099940   -0.0900
     20 N20        -1.3616    3.3592   46.0422 N.ar    1  ZINC000080099940   -0.5000
     21 C21        -5.0027    2.8057   49.4717 C.ar    1  ZINC000080099940   -0.1400
     22 C22        -5.7898    2.5716   50.5792 C.ar    1  ZINC000080099940   -0.0700
     23 C23        -7.2548    1.3946   53.0009 C.2     1  ZINC000080099940   -0.0900
     24 N24        -7.6888    1.3721   54.2970 N.pl3   1  ZINC000080099940   -0.3600
     25 C25        -8.8227    0.8829   54.8792 C.2     1  ZINC000080099940    0.0600
     26 C26        -9.0107    0.9855   56.2116 C.2     1  ZINC000080099940   -0.1400
     27 H27        -9.2163    1.2756   58.7696 H       1  ZINC000080099940    0.0700
     28 H28        -7.4567    1.2138   59.0308 H       1  ZINC000080099940    0.0800
     29 H29        -8.2660    2.7805   58.7881 H       1  ZINC000080099940    0.0800
     30 H30        -6.1583    2.5796   57.0620 H       1  ZINC000080099940    0.1500
     31 H31        -3.3467    1.9325   52.8442 H       1  ZINC000080099940    0.1300
     32 H32        -1.9499    2.3415   50.8626 H       1  ZINC000080099940    0.1400
     33 H33        -2.7292    3.8545   48.0962 H       1  ZINC000080099940    0.4200
     34 H34        -0.4786    0.1979   46.6140 H       1  ZINC000080099940    0.1600
     35 H35         0.9035    0.7009   44.6060 H       1  ZINC000080099940    0.1800
     36 H36        -1.4351    4.9442   43.5632 H       1  ZINC000080099940    0.0900
     37 H37        -0.8824    5.6984   45.0778 H       1  ZINC000080099940    0.0900
     38 H38         0.3058    5.1546   43.8691 H       1  ZINC000080099940    0.0900
     39 H39        -5.4619    3.0508   48.5254 H       1  ZINC000080099940    0.1300
     40 H40        -6.8651    2.6365   50.5014 H       1  ZINC000080099940    0.1400
     41 H41        -7.7758    0.9970   52.1425 H       1  ZINC000080099940    0.1900
     42 H42        -9.5742    0.4052   54.2682 H       1  ZINC000080099940    0.1700
     43 H43        -9.9123    0.5937   56.6590 H       1  ZINC000080099940    0.1500
@<TRIPOS>BOND
     1     1     2    1
     2     1    27    1
     3     1    28    1
     4     1    29    1
     5     2    26    1
     6     2     3    2
     7     3     4    1
     8     3    30    1
     9     4    24    1
    10     4     5    2
    11     5     6    1
    12     6     7    1
    13     6    23    2
    14     7    22   ar
    15     7     8   ar
    16     8     9   ar
    17     8    31    1
    18     9    10   ar
    19     9    32    1
    20    10    11    1
    21    10    21   ar
    22    11    12   am
    23    11    33    1
    24    12    13    2
    25    12    14    1
    26    14    20   ar
    27    14    15   ar
    28    15    16   ar
    29    15    34    1
    30    16    17   ar
    31    16    35    1
    32    17    18   ar
    33    18    19    1
    34    18    20   ar
    35    19    36    1
    36    19    37    1
    37    19    38    1
    38    21    22   ar
    39    21    39    1
    40    22    40    1
    41    23    24    1
    42    23    41    1
    43    24    25    1
    44    25    26    2
    45    25    42    1
    46    26    43    1
@<TRIPOS>SUBSTRUCTURE
     1 ZINC000080099940        1 TEMP              0 ****  ****    0 ROOT


##########                                Name:    ZINC000341804698
##########                DOCK_Rotatable_Bonds:                   7
##########                         Heavy_Atoms:                  24
##########                    Molecular_Weight:             342.318
##########                DOCK_Rotatable_Bonds:                   7
##########                       Formal_Charge:                0.02
##########                     HBond_Acceptors:                   8
##########                        HBond_Donors:                   0
##########                         Heavy_Atoms:                  24
##########                          Grid_Score:          -25.814747
##########                     Grid_vdw_energy:          -24.522738
##########                      Grid_es_energy:           -1.292010
##########           Internal_energy_repulsive:           25.378376

@<TRIPOS>MOLECULE
ZINC000341804698
 41 42 1 0 0
SMALL
USER_CHARGES


@<TRIPOS>ATOM
      1 C1         -9.8139    4.3502   50.0753 C.3     1  ZINC000341804698    0.0300
      2 O2         -8.8919    3.2697   50.2326 O.3     1  ZINC000341804698   -0.3900
      3 C3         -8.6969    2.8648   51.5890 C.3     1  ZINC000341804698    0.0700
      4 C4         -7.2126    2.9708   51.9445 C.3     1  ZINC000341804698    0.0400
      5 C5         -7.0281    2.6729   53.3742 C.1     1  ZINC000341804698    0.2200
      6 N6         -6.8858    2.4430   54.4775 N.1     1  ZINC000341804698   -0.4200
      7 C7         -6.4150    1.9679   51.1078 C.3     1  ZINC000341804698   -0.1200
      8 C8         -4.9342    2.0527   51.4911 C.3     1  ZINC000341804698    0.1100
      9 N9         -4.4883    3.4456   51.3502 N.am    1  ZINC000341804698   -0.6000
     10 C10        -3.4096    3.7488   50.6012 C.2     1  ZINC000341804698    0.5700
     11 O11        -3.0508    4.9051   50.4925 O.2     1  ZINC000341804698   -0.5200
     12 C12        -2.6628    2.6751   49.9117 C.ar    1  ZINC000341804698   -0.0900
     13 C13        -1.7130    1.9250   50.6068 C.ar    1  ZINC000341804698   -0.1100
     14 C14        -1.0176    0.9237   49.9601 C.ar    1  ZINC000341804698   -0.0800
     15 C15        -1.2584    0.6604   48.6246 C.ar    1  ZINC000341804698   -0.1700
     16 C16        -2.2010    1.4017   47.9246 C.ar    1  ZINC000341804698    0.1100
     17 O17        -2.4335    1.1388   46.6116 O.3     1  ZINC000341804698   -0.3100
     18 C18        -1.4508    0.3641   45.9212 C.3     1  ZINC000341804698    0.6000
     19 F19        -0.1745    0.8446   46.2333 F       1  ZINC000341804698   -0.1600
     20 F20        -1.5536   -0.9751   46.3124 F       1  ZINC000341804698   -0.1300
     21 F21        -1.6624    0.4646   44.5420 F       1  ZINC000341804698   -0.1600
     22 C22        -2.9089    2.4044   48.5653 C.ar    1  ZINC000341804698   -0.0700
     23 C23        -5.2410    4.5016   52.0409 C.3     1  ZINC000341804698    0.0900
     24 C24        -6.7182    4.3893   51.6514 C.3     1  ZINC000341804698   -0.1200
     25 H25       -10.7879    4.0566   50.4666 H       1  ZINC000341804698    0.0400
     26 H26        -9.4502    5.2205   50.6217 H       1  ZINC000341804698    0.0500
     27 H27        -9.9066    4.5977   49.0179 H       1  ZINC000341804698    0.0900
     28 H28        -9.2756    3.5119   52.2481 H       1  ZINC000341804698    0.0700
     29 H29        -9.0270    1.8331   51.7113 H       1  ZINC000341804698    0.0600
     30 H30        -6.7832    0.9601   51.2996 H       1  ZINC000341804698    0.1000
     31 H31        -6.5310    2.2030   50.0498 H       1  ZINC000341804698    0.0900
     32 H32        -4.8051    1.7305   52.5244 H       1  ZINC000341804698    0.0700
     33 H33        -4.3487    1.4130   50.8308 H       1  ZINC000341804698    0.1100
     34 H34        -1.5222    2.1283   51.6502 H       1  ZINC000341804698    0.1400
     35 H35        -0.2827    0.3441   50.4991 H       1  ZINC000341804698    0.1400
     36 H36        -0.7113   -0.1245   48.1236 H       1  ZINC000341804698    0.1400
     37 H37        -3.6426    2.9815   48.0221 H       1  ZINC000341804698    0.1500
     38 H38        -5.1368    4.3790   53.1190 H       1  ZINC000341804698    0.0800
     39 H39        -4.8578    5.4777   51.7433 H       1  ZINC000341804698    0.1100
     40 H40        -6.8315    4.6016   50.5884 H       1  ZINC000341804698    0.1000
     41 H41        -7.3025    5.1049   52.2301 H       1  ZINC000341804698    0.0900
@<TRIPOS>BOND
     1     1     2    1
     2     1    25    1
     3     1    26    1
     4     1    27    1
     5     2     3    1
     6     3     4    1
     7     3    28    1
     8     3    29    1
     9     4    24    1
    10     4     5    1
    11     4     7    1
    12     5     6    3
    13     7     8    1
    14     7    30    1
    15     7    31    1
    16     8     9    1
    17     8    32    1
    18     8    33    1
    19     9    10   am
    20     9    23    1
    21    10    11    2
    22    10    12    1
    23    12    22   ar
    24    12    13   ar
    25    13    14   ar
    26    13    34    1
    27    14    15   ar
    28    14    35    1
    29    15    16   ar
    30    15    36    1
    31    16    17    1
    32    16    22   ar
    33    17    18    1
    34    18    19    1
    35    18    20    1
    36    18    21    1
    37    22    37    1
    38    23    24    1
    39    23    38    1
    40    23    39    1
    41    24    40    1
    42    24    41    1
@<TRIPOS>SUBSTRUCTURE
     1 ZINC000341804698        1 TEMP              0 ****  ****    0 ROOT


##########                                Name:    ZINC000277311370
##########                DOCK_Rotatable_Bonds:                   5
##########                         Heavy_Atoms:                  17
##########                    Molecular_Weight:             361.036
##########                DOCK_Rotatable_Bonds:                   5
##########                       Formal_Charge:        -7.45058e-08
##########                     HBond_Acceptors:                   4
##########                        HBond_Donors:                   1
##########                         Heavy_Atoms:                  17
##########                          Grid_Score:          -25.767763
##########                     Grid_vdw_energy:          -25.072697
##########                      Grid_es_energy:           -0.695067
##########           Internal_energy_repulsive:            8.298476

@<TRIPOS>MOLECULE
ZINC000277311370
 28 28 1 0 0
SMALL
USER_CHARGES


@<TRIPOS>ATOM
      1 C1        -14.8563   -2.3382   56.2040 C.3     1  ZINC000277311370   -0.1500
      2 C2        -13.5832   -1.8941   56.9272 C.3     1  ZINC000277311370   -0.1000
      3 C3        -13.9412   -0.8736   58.0095 C.3     1  ZINC000277311370   -0.1600
      4 C4        -12.9135   -3.1087   57.5730 C.3     1  ZINC000277311370    0.2500
      5 H5        -12.8145   -3.9044   56.8346 H       1  ZINC000277311370    0.1400
      6 C6        -13.7364   -3.5826   58.6978 C.1     1  ZINC000277311370    0.1900
      7 N7        -14.3714   -3.9483   59.5658 N.1     1  ZINC000277311370   -0.4100
      8 N8        -11.5861   -2.7306   58.0643 N.am    1  ZINC000277311370   -0.7000
      9 C9        -10.5194   -2.7974   57.2432 C.2     1  ZINC000277311370    0.5700
     10 O10       -10.6590   -3.1698   56.0948 O.2     1  ZINC000277311370   -0.4900
     11 C11        -9.1772   -2.4170   57.7403 C.ar    1  ZINC000277311370    0.1100
     12 N12        -8.8363   -1.1353   57.8000 N.ar    1  ZINC000277311370   -0.4300
     13 C13        -7.6544   -0.7551   58.2359 C.ar    1  ZINC000277311370    0.1300
     14 Br14       -7.2311    1.0869   58.2959 Br      1  ZINC000277311370    0.0200
     15 C15        -6.7149   -1.6869   58.6521 C.ar    1  ZINC000277311370   -0.1100
     16 C16        -7.0292   -3.0353   58.6065 C.ar    1  ZINC000277311370   -0.0400
     17 C17        -8.2844   -3.4072   58.1471 C.ar    1  ZINC000277311370   -0.0900
     18 Br18       -8.7724   -5.2321   58.0614 Br      1  ZINC000277311370    0.0300
     19 H19       -15.3335   -1.4729   55.7440 H       1  ZINC000277311370    0.0700
     20 H20       -14.6013   -3.0652   55.4330 H       1  ZINC000277311370    0.0700
     21 H21       -15.5410   -2.7929   56.9199 H       1  ZINC000277311370    0.0600
     22 H22       -12.8985   -1.4394   56.2113 H       1  ZINC000277311370    0.1000
     23 H23       -14.6259   -1.3282   58.7254 H       1  ZINC000277311370    0.0600
     24 H24       -13.0343   -0.5572   58.5248 H       1  ZINC000277311370    0.0600
     25 H25       -14.4184   -0.0083   57.5495 H       1  ZINC000277311370    0.0700
     26 H26       -11.4749   -2.4322   58.9805 H       1  ZINC000277311370    0.4200
     27 H27        -5.7477   -1.3643   59.0081 H       1  ZINC000277311370    0.1600
     28 H28        -6.3147   -3.7799   58.9251 H       1  ZINC000277311370    0.1700
@<TRIPOS>BOND
     1     1     2    1
     2     1    19    1
     3     1    20    1
     4     1    21    1
     5     2     3    1
     6     2     4    1
     7     2    22    1
     8     3    23    1
     9     3    24    1
    10     3    25    1
    11     4     5    1
    12     4     6    1
    13     4     8    1
    14     6     7    3
    15     8     9   am
    16     8    26    1
    17     9    10    2
    18     9    11    1
    19    11    17   ar
    20    11    12   ar
    21    12    13   ar
    22    13    14    1
    23    13    15   ar
    24    15    16   ar
    25    15    27    1
    26    16    17   ar
    27    16    28    1
    28    17    18    1
@<TRIPOS>SUBSTRUCTURE
     1 ZINC000277311370        1 TEMP              0 ****  ****    0 ROOT


##########                                Name:    ZINC000437443367
##########                DOCK_Rotatable_Bonds:                   8
##########                         Heavy_Atoms:                  24
##########                    Molecular_Weight:             334.434
##########                DOCK_Rotatable_Bonds:                   8
##########                       Formal_Charge:          -0.0500003
##########                     HBond_Acceptors:                   5
##########                        HBond_Donors:                   1
##########                         Heavy_Atoms:                  24
##########                          Grid_Score:          -25.762846
##########                     Grid_vdw_energy:          -25.593784
##########                      Grid_es_energy:           -0.169062
##########           Internal_energy_repulsive:           22.419300

@<TRIPOS>MOLECULE
ZINC000437443367
 51 52 1 0 0
SMALL
USER_CHARGES


@<TRIPOS>ATOM
      1 C1         -9.0334   -0.2388   56.7533 C.3     1  ZINC000437443367   -0.1200
      2 C2         -9.3513   -0.2385   55.2803 C.ar    1  ZINC000437443367   -0.1000
      3 C3         -8.4183    0.2227   54.3732 C.ar    1  ZINC000437443367   -0.1200
      4 C4         -8.7121    0.2228   53.0152 C.ar    1  ZINC000437443367    0.1400
      5 N5         -7.7686    0.6890   52.0948 N.am    1  ZINC000437443367   -0.6400
      6 C6         -7.8204    1.9651   51.6643 C.2     1  ZINC000437443367    0.5000
      7 O7         -8.6861    2.7098   52.0758 O.2     1  ZINC000437443367   -0.4800
      8 C8         -6.8125    2.4630   50.6811 C.2     1  ZINC000437443367    0.5100
      9 O9         -7.0050    2.3230   49.4911 O.2     1  ZINC000437443367   -0.5200
     10 N10        -5.6891    3.0679   51.1155 N.am    1  ZINC000437443367   -0.5700
     11 C11        -4.7003    3.5563   50.1511 C.3     1  ZINC000437443367    0.0900
     12 C12        -3.8976    2.3754   49.6013 C.3     1  ZINC000437443367   -0.1200
     13 C13        -3.0290    2.8486   48.4341 C.3     1  ZINC000437443367   -0.0900
     14 C14        -2.0222    3.8859   48.9352 C.3     1  ZINC000437443367   -0.1400
     15 C15        -2.2785    1.6548   47.8402 C.3     1  ZINC000437443367   -0.1500
     16 C16        -5.4569    3.2368   52.5520 C.3     1  ZINC000437443367    0.1300
     17 C17        -4.2317    2.4081   52.9902 C.3     1  ZINC000437443367   -0.1300
     18 C18        -3.0580    3.4183   52.9566 C.3     1  ZINC000437443367   -0.1300
     19 C19        -3.7130    4.7207   53.4799 C.3     1  ZINC000437443367   -0.1200
     20 C20        -5.1270    4.7072   52.8633 C.3     1  ZINC000437443367   -0.1400
     21 C21        -9.9443   -0.2413   52.5734 C.ar    1  ZINC000437443367   -0.1100
     22 C22       -10.8747   -0.7018   53.4844 C.ar    1  ZINC000437443367   -0.1300
     23 C23       -10.5775   -0.7062   54.8369 C.ar    1  ZINC000437443367    0.0800
     24 F24       -11.4890   -1.1570   55.7263 F       1  ZINC000437443367   -0.1400
     25 H25        -8.5650   -1.1852   57.0237 H       1  ZINC000437443367    0.0800
     26 H26        -8.3514    0.5812   56.9779 H       1  ZINC000437443367    0.0700
     27 H27        -9.9535   -0.1128   57.3237 H       1  ZINC000437443367    0.0700
     28 H28        -7.4609    0.5836   54.7189 H       1  ZINC000437443367    0.1400
     29 H29        -7.0766    0.0940   51.7661 H       1  ZINC000437443367    0.4200
     30 H30        -5.2111    4.0615   49.3315 H       1  ZINC000437443367    0.0900
     31 H31        -4.0257    4.2556   50.6451 H       1  ZINC000437443367    0.1000
     32 H32        -3.2605    1.9714   50.3880 H       1  ZINC000437443367    0.0700
     33 H33        -4.5819    1.6011   49.2545 H       1  ZINC000437443367    0.0600
     34 H34        -3.6622    3.2970   47.6685 H       1  ZINC000437443367    0.0600
     35 H35        -1.3892    3.4374   49.7008 H       1  ZINC000437443367    0.0600
     36 H36        -1.4035    4.2230   48.1037 H       1  ZINC000437443367    0.0400
     37 H37        -2.5570    4.7363   49.3583 H       1  ZINC000437443367    0.0600
     38 H38        -2.9957    0.9158   47.4831 H       1  ZINC000437443367    0.0500
     39 H39        -1.6596    1.9919   47.0086 H       1  ZINC000437443367    0.0500
     40 H40        -1.6454    1.2064   48.6057 H       1  ZINC000437443367    0.0500
     41 H41        -6.3388    2.9253   53.1118 H       1  ZINC000437443367    0.1000
     42 H42        -4.3736    2.0219   53.9995 H       1  ZINC000437443367    0.0800
     43 H43        -4.0528    1.5921   52.2900 H       1  ZINC000437443367    0.0700
     44 H44        -2.2534    3.0978   53.6183 H       1  ZINC000437443367    0.0700
     45 H45        -2.6924    3.5518   51.9385 H       1  ZINC000437443367    0.0700
     46 H46        -3.7712    4.7079   54.5682 H       1  ZINC000437443367    0.0700
     47 H47        -3.1556    5.5925   53.1370 H       1  ZINC000437443367    0.0700
     48 H48        -5.1398    5.2952   51.9455 H       1  ZINC000437443367    0.0800
     49 H49        -5.8485    5.1092   53.5748 H       1  ZINC000437443367    0.0700
     50 H50       -10.1750   -0.2419   51.5184 H       1  ZINC000437443367    0.1600
     51 H51       -11.8330   -1.0629   53.1414 H       1  ZINC000437443367    0.1400
@<TRIPOS>BOND
     1     1     2    1
     2     1    25    1
     3     1    26    1
     4     1    27    1
     5     2    23   ar
     6     2     3   ar
     7     3     4   ar
     8     3    28    1
     9     4     5    1
    10     4    21   ar
    11     5     6   am
    12     5    29    1
    13     6     7    2
    14     6     8    1
    15     8     9    2
    16     8    10   am
    17    10    11    1
    18    10    16    1
    19    11    12    1
    20    11    30    1
    21    11    31    1
    22    12    13    1
    23    12    32    1
    24    12    33    1
    25    13    14    1
    26    13    15    1
    27    13    34    1
    28    14    35    1
    29    14    36    1
    30    14    37    1
    31    15    38    1
    32    15    39    1
    33    15    40    1
    34    16    20    1
    35    16    17    1
    36    16    41    1
    37    17    18    1
    38    17    42    1
    39    17    43    1
    40    18    19    1
    41    18    44    1
    42    18    45    1
    43    19    20    1
    44    19    46    1
    45    19    47    1
    46    20    48    1
    47    20    49    1
    48    21    22   ar
    49    21    50    1
    50    22    23   ar
    51    22    51    1
    52    23    24    1
@<TRIPOS>SUBSTRUCTURE
     1 ZINC000437443367        1 TEMP              0 ****  ****    0 ROOT


##########                                Name:    ZINC000098105561
##########                DOCK_Rotatable_Bonds:                   5
##########                         Heavy_Atoms:                  25
##########                    Molecular_Weight:             368.336
##########                DOCK_Rotatable_Bonds:                   5
##########                       Formal_Charge:         2.98023e-08
##########                     HBond_Acceptors:                   9
##########                        HBond_Donors:                   0
##########                         Heavy_Atoms:                  25
##########                          Grid_Score:          -25.667068
##########                     Grid_vdw_energy:          -24.034441
##########                      Grid_es_energy:           -1.632627
##########           Internal_energy_repulsive:           10.526708

@<TRIPOS>MOLECULE
ZINC000098105561
 36 38 1 0 0
SMALL
USER_CHARGES


@<TRIPOS>ATOM
      1 C1        -14.1889   -4.0787   57.7473 C.3     1  ZINC000098105561   -0.0800
      2 C2        -13.1495   -3.1996   58.3935 C.2     1  ZINC000098105561    0.0900
      3 C3        -13.1454   -2.9287   59.7008 C.2     1  ZINC000098105561   -0.2700
      4 S4        -11.7736   -1.8753   60.0359 S.3     1  ZINC000098105561    0.1600
      5 C5        -11.3373   -1.9006   58.3830 C.2     1  ZINC000098105561    0.2500
      6 N6        -10.2501   -1.2323   57.8375 N.am    1  ZINC000098105561   -0.5200
      7 C7         -8.8889   -1.6921   58.1235 C.3     1  ZINC000098105561    0.0500
      8 C8         -8.7643   -3.1734   57.7612 C.3     1  ZINC000098105561    0.4400
      9 F9         -9.5199   -3.9378   58.6569 F       1  ZINC000098105561   -0.1700
     10 F10        -9.2373   -3.3767   56.4604 F       1  ZINC000098105561   -0.1700
     11 F11        -7.4219   -3.5603   57.8350 F       1  ZINC000098105561   -0.1700
     12 C12       -10.4466   -0.1602   57.0446 C.2     1  ZINC000098105561    0.5800
     13 O13       -11.5757    0.2212   56.8074 O.2     1  ZINC000098105561   -0.4100
     14 C14        -9.2864    0.5530   56.4625 C.2     1  ZINC000098105561    0.0800
     15 C15        -8.9504    0.3023   55.1729 C.2     1  ZINC000098105561   -0.2000
     16 C16        -7.7853    1.0038   54.6077 C.2     1  ZINC000098105561    0.4200
     17 O17        -7.5528    1.0093   53.4117 O.2     1  ZINC000098105561   -0.4300
     18 C18        -6.9157    1.7003   55.5772 C.ar    1  ZINC000098105561   -0.2200
     19 C19        -5.6589    2.1797   55.2147 C.ar    1  ZINC000098105561   -0.0300
     20 C20        -4.8793    2.8182   56.1546 C.ar    1  ZINC000098105561   -0.1400
     21 C21        -5.3428    2.9814   57.4523 C.ar    1  ZINC000098105561   -0.0500
     22 C22        -6.5852    2.5135   57.8221 C.ar    1  ZINC000098105561   -0.1400
     23 C23        -7.3914    1.8691   56.8896 C.ar    1  ZINC000098105561    0.1400
     24 O24        -8.6165    1.4228   57.2307 O.3     1  ZINC000098105561   -0.2300
     25 N25       -12.1668   -2.6397   57.7142 N.2     1  ZINC000098105561   -0.4600
     26 H26       -13.8501   -5.1146   57.7643 H       1  ZINC000098105561    0.0800
     27 H27       -15.1275   -3.9945   58.2949 H       1  ZINC000098105561    0.0800
     28 H28       -14.3409   -3.7632   56.7151 H       1  ZINC000098105561    0.0800
     29 H29       -13.8585   -3.2916   60.4261 H       1  ZINC000098105561    0.1900
     30 H30        -8.1783   -1.1129   57.5339 H       1  ZINC000098105561    0.1700
     31 H31        -8.6754   -1.5583   59.1839 H       1  ZINC000098105561    0.1400
     32 H32        -9.5217   -0.3933   54.5763 H       1  ZINC000098105561    0.1800
     33 H33        -5.2980    2.0515   54.2049 H       1  ZINC000098105561    0.1400
     34 H34        -3.9040    3.1927   55.8804 H       1  ZINC000098105561    0.1400
     35 H35        -4.7222    3.4809   58.1816 H       1  ZINC000098105561    0.1400
     36 H36        -6.9331    2.6475   58.8358 H       1  ZINC000098105561    0.1400
@<TRIPOS>BOND
     1     1     2    1
     2     1    26    1
     3     1    27    1
     4     1    28    1
     5     2    25    1
     6     2     3    2
     7     3     4    1
     8     3    29    1
     9     4     5    1
    10     5     6    1
    11     5    25    2
    12     6     7    1
    13     6    12   am
    14     7     8    1
    15     7    30    1
    16     7    31    1
    17     8     9    1
    18     8    10    1
    19     8    11    1
    20    12    13    2
    21    12    14    1
    22    14    24    1
    23    14    15    2
    24    15    16    1
    25    15    32    1
    26    16    17    2
    27    16    18    1
    28    18    23   ar
    29    18    19   ar
    30    19    20   ar
    31    19    33    1
    32    20    21   ar
    33    20    34    1
    34    21    22   ar
    35    21    35    1
    36    22    23   ar
    37    22    36    1
    38    23    24    1
@<TRIPOS>SUBSTRUCTURE
     1 ZINC000098105561        1 TEMP              0 ****  ****    0 ROOT


##########                                Name:    ZINC000942661662
##########                DOCK_Rotatable_Bonds:                   6
##########                         Heavy_Atoms:                  25
##########                    Molecular_Weight:             343.426
##########                DOCK_Rotatable_Bonds:                   6
##########                       Formal_Charge:           0.0399997
##########                     HBond_Acceptors:                   6
##########                        HBond_Donors:                   1
##########                         Heavy_Atoms:                  25
##########                          Grid_Score:          -25.554556
##########                     Grid_vdw_energy:          -23.694349
##########                      Grid_es_energy:           -1.860206
##########           Internal_energy_repulsive:           23.800209

@<TRIPOS>MOLECULE
ZINC000942661662
 50 52 1 0 0
SMALL
USER_CHARGES


@<TRIPOS>ATOM
      1 C1         -6.1946    3.8499   56.3272 C.3     1  ZINC000942661662   -0.1700
      2 C2         -6.3493    2.3336   56.4612 C.3     1  ZINC000942661662    0.1000
      3 N3         -7.7046    1.9440   56.0644 N.am    1  ZINC000942661662   -0.6000
      4 C4         -8.6144    1.6183   57.0038 C.2     1  ZINC000942661662    0.6000
      5 O5         -9.7396    1.2949   56.6744 O.2     1  ZINC000942661662   -0.5200
      6 C6         -8.2458    1.6538   58.4303 C.2     1  ZINC000942661662   -0.2400
      7 C7         -7.9188    0.5937   59.2242 C.2     1  ZINC000942661662    0.0700
      8 C8         -7.8688   -0.8490   58.7919 C.3     1  ZINC000942661662   -0.0900
      9 O9         -7.6502    1.0522   60.4505 O.3     1  ZINC000942661662   -0.1700
     10 C10        -7.7869    2.3863   60.5038 C.2     1  ZINC000942661662   -0.0300
     11 C11        -8.1475    2.8398   59.2935 C.2     1  ZINC000942661662   -0.1900
     12 C12        -8.0710    1.9087   54.6463 C.3     1  ZINC000942661662    0.1400
     13 H13        -8.7123    2.7518   54.3895 H       1  ZINC000942661662    0.1100
     14 C14        -8.7495    0.5621   54.2806 C.3     1  ZINC000942661662   -0.1400
     15 C15        -8.4371    0.4150   52.7765 C.3     1  ZINC000942661662    0.1000
     16 N16        -7.2569    1.2445   52.4927 N.am    1  ZINC000942661662   -0.6200
     17 C17        -6.6800    1.4026   51.2848 C.2     1  ZINC000942661662    0.6100
     18 O18        -7.1378    0.8317   50.3126 O.2     1  ZINC000942661662   -0.5200
     19 C19        -5.5005    2.2628   51.1424 C.2     1  ZINC000942661662   -0.0600
     20 C20        -5.4955    3.5760   50.7229 C.2     1  ZINC000942661662   -0.0700
     21 C21        -6.6974    4.3939   50.3259 C.3     1  ZINC000942661662   -0.0900
     22 C22        -4.1650    4.0063   50.7356 C.2     1  ZINC000942661662   -0.2100
     23 C23        -3.3976    2.9713   51.1533 C.2     1  ZINC000942661662    0.0500
     24 C24        -1.8995    3.0001   51.3142 C.3     1  ZINC000942661662   -0.0900
     25 N25        -4.1976    1.9076   51.4091 N.pl3   1  ZINC000942661662   -0.5400
     26 C26        -6.8097    1.8766   53.7477 C.3     1  ZINC000942661662    0.0900
     27 H27        -5.1862    4.1398   56.6224 H       1  ZINC000942661662    0.0700
     28 H28        -6.3683    4.1426   55.2917 H       1  ZINC000942661662    0.0600
     29 H29        -6.9192    4.3474   56.9718 H       1  ZINC000942661662    0.0600
     30 H30        -5.6247    1.8361   55.8166 H       1  ZINC000942661662    0.0900
     31 H31        -6.1756    2.0408   57.4967 H       1  ZINC000942661662    0.0800
     32 H32        -6.8683   -1.0852   58.4294 H       1  ZINC000942661662    0.0900
     33 H33        -8.1092   -1.4908   59.6395 H       1  ZINC000942661662    0.0900
     34 H34        -8.5928   -1.0145   57.9940 H       1  ZINC000942661662    0.1000
     35 H35        -7.6272    2.9978   61.3796 H       1  ZINC000942661662    0.2100
     36 H36        -8.3350    3.8658   59.0128 H       1  ZINC000942661662    0.1600
     37 H37        -8.3096   -0.2580   54.8479 H       1  ZINC000942661662    0.1000
     38 H38        -9.8254    0.6145   54.4477 H       1  ZINC000942661662    0.0900
     39 H39        -8.2222   -0.6278   52.5428 H       1  ZINC000942661662    0.0700
     40 H40        -9.2849    0.7622   52.1860 H       1  ZINC000942661662    0.0700
     41 H41        -7.0968    4.9024   51.2034 H       1  ZINC000942661662    0.0700
     42 H42        -6.4039    5.1326   49.5801 H       1  ZINC000942661662    0.0600
     43 H43        -7.4608    3.7382   49.9072 H       1  ZINC000942661662    0.0800
     44 H44        -3.8120    4.9893   50.4606 H       1  ZINC000942661662    0.1400
     45 H45        -1.6488    3.3184   52.3261 H       1  ZINC000942661662    0.0800
     46 H46        -1.4958    2.0033   51.1363 H       1  ZINC000942661662    0.0700
     47 H47        -1.4703    3.6993   50.5965 H       1  ZINC000942661662    0.0900
     48 H48        -3.9008    1.0389   51.7223 H       1  ZINC000942661662    0.4100
     49 H49        -6.4528    2.8886   53.5565 H       1  ZINC000942661662    0.0800
     50 H50        -6.0267    1.2795   54.2151 H       1  ZINC000942661662    0.1000
@<TRIPOS>BOND
     1     1     2    1
     2     1    27    1
     3     1    28    1
     4     1    29    1
     5     2     3    1
     6     2    30    1
     7     2    31    1
     8     3     4   am
     9     3    12    1
    10     4     5    2
    11     4     6    1
    12     6    11    1
    13     6     7    2
    14     7     8    1
    15     7     9    1
    16     8    32    1
    17     8    33    1
    18     8    34    1
    19     9    10    1
    20    10    11    2
    21    10    35    1
    22    11    36    1
    23    12    13    1
    24    12    26    1
    25    12    14    1
    26    14    15    1
    27    14    37    1
    28    14    38    1
    29    15    16    1
    30    15    39    1
    31    15    40    1
    32    16    17   am
    33    16    26    1
    34    17    18    2
    35    17    19    1
    36    19    25    1
    37    19    20    2
    38    20    21    1
    39    20    22    1
    40    21    41    1
    41    21    42    1
    42    21    43    1
    43    22    23    2
    44    22    44    1
    45    23    24    1
    46    23    25    1
    47    24    45    1
    48    24    46    1
    49    24    47    1
    50    25    48    1
    51    26    49    1
    52    26    50    1
@<TRIPOS>SUBSTRUCTURE
     1 ZINC000942661662        1 TEMP              0 ****  ****    0 ROOT


##########                                Name:    ZINC000154446008
##########                DOCK_Rotatable_Bonds:                   5
##########                         Heavy_Atoms:                  24
##########                    Molecular_Weight:              349.41
##########                DOCK_Rotatable_Bonds:                   5
##########                       Formal_Charge:          -0.0199999
##########                     HBond_Acceptors:                   8
##########                        HBond_Donors:                   0
##########                         Heavy_Atoms:                  24
##########                          Grid_Score:          -25.461126
##########                     Grid_vdw_energy:          -27.317673
##########                      Grid_es_energy:            1.856547
##########           Internal_energy_repulsive:           14.963417

@<TRIPOS>MOLECULE
ZINC000154446008
 43 45 1 0 0
SMALL
USER_CHARGES


@<TRIPOS>ATOM
      1 O1         -6.5452    3.6519   50.8253 O.2     1  ZINC000154446008   -0.5000
      2 C2         -5.7740    2.9315   51.4315 C.2     1  ZINC000154446008    0.5900
      3 C3         -5.9307    2.7414   52.8765 C.2     1  ZINC000154446008   -0.2300
      4 C4         -6.9249    2.0226   53.4783 C.2     1  ZINC000154446008   -0.0600
      5 C5         -6.8316    2.0083   54.8498 C.2     1  ZINC000154446008   -0.0500
      6 C6         -5.7977    2.6909   55.3556 C.2     1  ZINC000154446008   -0.2100
      7 N7         -5.4995    2.8134   56.8004 N.pl3   1  ZINC000154446008    0.0500
      8 O8         -4.5142    3.4273   57.1689 O.2     1  ZINC000154446008   -0.1300
      9 O9         -6.2394    2.3001   57.6205 O.2     1  ZINC000154446008   -0.1500
     10 S10        -4.8650    3.3955   54.1127 S.3     1  ZINC000154446008    0.3500
     11 N11        -4.7793    2.3040   50.7732 N.am    1  ZINC000154446008   -0.6100
     12 C12        -4.6066    2.4901   49.3256 C.3     1  ZINC000154446008    0.0800
     13 C13        -3.1745    2.9708   49.0608 C.3     1  ZINC000154446008    0.0900
     14 N14        -2.2429    2.0888   49.7776 N.am    1  ZINC000154446008   -0.6100
     15 C15        -1.2476    1.4620   49.1194 C.2     1  ZINC000154446008    0.5500
     16 O16        -0.4829    0.7344   49.7234 O.2     1  ZINC000154446008   -0.5300
     17 C17        -1.0864    1.6580   47.6704 C.2     1  ZINC000154446008   -0.1500
     18 C18        -0.5842    2.7994   47.2516 C.2     1  ZINC000154446008   -0.1100
     19 C19        -0.3732    3.1378   45.8046 C.3     1  ZINC000154446008   -0.1000
     20 C20        -0.4100    1.8655   44.9555 C.3     1  ZINC000154446008   -0.1200
     21 C21        -1.6662    1.0681   45.3273 C.3     1  ZINC000154446008   -0.1200
     22 C22        -1.4989    0.5418   46.7557 C.3     1  ZINC000154446008   -0.0700
     23 C23        -2.4156    1.9026   51.2252 C.3     1  ZINC000154446008    0.1000
     24 C24        -3.8443    1.4263   51.4910 C.3     1  ZINC000154446008    0.1000
     25 H25        -7.7061    1.5162   52.9310 H       1  ZINC000154446008    0.1800
     26 H26        -7.5410    1.4847   55.4734 H       1  ZINC000154446008    0.1800
     27 H27        -4.7755    1.5434   48.8124 H       1  ZINC000154446008    0.0900
     28 H28        -5.3153    3.2358   48.9655 H       1  ZINC000154446008    0.0900
     29 H29        -2.9668    2.9305   47.9915 H       1  ZINC000154446008    0.1100
     30 H30        -3.0596    3.9936   49.4199 H       1  ZINC000154446008    0.0800
     31 H31        -0.3079    3.5358   47.9918 H       1  ZINC000154446008    0.1100
     32 H32        -1.1598    3.8158   45.4737 H       1  ZINC000154446008    0.0900
     33 H33         0.5947    3.6244   45.6847 H       1  ZINC000154446008    0.0800
     34 H34        -0.4442    2.1312   43.8989 H       1  ZINC000154446008    0.0700
     35 H35         0.4775    1.2654   45.1564 H       1  ZINC000154446008    0.0700
     36 H36        -2.5408    1.7162   45.2725 H       1  ZINC000154446008    0.0700
     37 H37        -1.7844    0.2298   44.6406 H       1  ZINC000154446008    0.0700
     38 H38        -0.7398   -0.2404   46.7660 H       1  ZINC000154446008    0.0800
     39 H39        -2.4460    0.1279   47.1016 H       1  ZINC000154446008    0.0700
     40 H40        -1.7069    1.1569   51.5853 H       1  ZINC000154446008    0.1100
     41 H41        -2.2467    2.8493   51.7385 H       1  ZINC000154446008    0.0800
     42 H42        -4.0505    1.4671   52.5605 H       1  ZINC000154446008    0.1100
     43 H43        -3.9618    0.4039   51.1321 H       1  ZINC000154446008    0.0800
@<TRIPOS>BOND
     1     1     2    2
     2     2     3    1
     3     2    11   am
     4     3    10    1
     5     3     4    2
     6     4     5    1
     7     4    25    1
     8     5     6    2
     9     5    26    1
    10     6     7    1
    11     6    10    1
    12     7     8    2
    13     7     9    2
    14    11    24    1
    15    11    12    1
    16    12    13    1
    17    12    27    1
    18    12    28    1
    19    13    14    1
    20    13    29    1
    21    13    30    1
    22    14    15   am
    23    14    23    1
    24    15    16    2
    25    15    17    1
    26    17    22    1
    27    17    18    2
    28    18    19    1
    29    18    31    1
    30    19    20    1
    31    19    32    1
    32    19    33    1
    33    20    21    1
    34    20    34    1
    35    20    35    1
    36    21    22    1
    37    21    36    1
    38    21    37    1
    39    22    38    1
    40    22    39    1
    41    23    24    1
    42    23    40    1
    43    23    41    1
    44    24    42    1
    45    24    43    1
@<TRIPOS>SUBSTRUCTURE
     1 ZINC000154446008        1 TEMP              0 ****  ****    0 ROOT


##########                                Name:    ZINC000478980774
##########                DOCK_Rotatable_Bonds:                   4
##########                         Heavy_Atoms:                  26
##########                    Molecular_Weight:             401.818
##########                DOCK_Rotatable_Bonds:                   4
##########                       Formal_Charge:          -0.0100001
##########                     HBond_Acceptors:                   9
##########                        HBond_Donors:                   1
##########                         Heavy_Atoms:                  26
##########                          Grid_Score:          -25.430166
##########                     Grid_vdw_energy:          -24.183828
##########                      Grid_es_energy:           -1.246338
##########           Internal_energy_repulsive:            7.158340

@<TRIPOS>MOLECULE
ZINC000478980774
 40 42 1 0 0
SMALL
USER_CHARGES


@<TRIPOS>ATOM
      1 C1        -13.4997   -4.4344   57.4363 C.3     1  ZINC000478980774   -0.1400
      2 C2        -13.4262   -3.1163   56.6631 C.3     1  ZINC000478980774   -0.4600
      3 H3        -13.3232   -3.3248   55.5982 H       1  ZINC000478980774    0.1500
      4 C4        -14.6860   -2.3240   56.9001 C.2     1  ZINC000478980774    0.5400
      5 O5        -15.3105   -1.8819   55.9590 O.2     1  ZINC000478980774   -0.5000
      6 N6        -15.1188   -2.1065   58.1579 N.am    1  ZINC000478980774   -0.6600
      7 C7        -16.2899   -1.3699   58.3782 C.ar    1  ZINC000478980774    0.1600
      8 C8        -17.5298   -1.9687   58.2030 C.ar    1  ZINC000478980774   -0.1200
      9 C9        -18.6862   -1.2431   58.4196 C.ar    1  ZINC000478980774   -0.0600
     10 C10       -18.6113    0.0832   58.8117 C.ar    1  ZINC000478980774    0.0100
     11 O11       -19.5847    1.0019   59.0841 O.3     1  ZINC000478980774   -0.2900
     12 C12       -18.9285    2.0492   59.8229 C.3     1  ZINC000478980774    0.5700
     13 F13       -19.4882    3.2937   59.5139 F       1  ZINC000478980774   -0.1100
     14 F14       -19.0073    1.8043   61.1980 F       1  ZINC000478980774   -0.1500
     15 O15       -17.5630    1.9826   59.3715 O.3     1  ZINC000478980774   -0.2800
     16 C16       -17.3681    0.6869   58.9887 C.ar    1  ZINC000478980774    0.0500
     17 C17       -16.2105   -0.0423   58.7772 C.ar    1  ZINC000478980774   -0.0900
     18 S18       -11.9942   -2.1597   57.2333 S.o     1  ZINC000478980774    1.3000
     19 O19       -12.1441   -1.8602   58.6142 O.2     1  ZINC000478980774   -0.7800
     20 C20       -10.6157   -3.3180   57.0120 C.3     1  ZINC000478980774   -0.4300
     21 C21        -9.3321   -2.6603   57.4491 C.ar    1  ZINC000478980774   -0.0600
     22 C22        -9.1060   -1.3274   57.1628 C.ar    1  ZINC000478980774   -0.1100
     23 C23        -7.9284   -0.7239   57.5637 C.ar    1  ZINC000478980774   -0.1100
     24 C24        -6.9763   -1.4535   58.2505 C.ar    1  ZINC000478980774   -0.1100
     25 C25        -7.2013   -2.7870   58.5374 C.ar    1  ZINC000478980774   -0.1100
     26 C26        -8.3819   -3.3896   58.1420 C.ar    1  ZINC000478980774   -0.0300
     27 Cl27       -8.6652   -5.0641   58.5020 Cl      1  ZINC000478980774   -0.0600
     28 H28       -12.5885   -5.0074   57.2649 H       1  ZINC000478980774    0.0800
     29 H29       -13.6028   -4.2258   58.5011 H       1  ZINC000478980774    0.0700
     30 H30       -14.3602   -5.0091   57.0938 H       1  ZINC000478980774    0.0700
     31 H31       -14.6193   -2.4598   58.9105 H       1  ZINC000478980774    0.4200
     32 H32       -17.5911   -3.0026   57.8969 H       1  ZINC000478980774    0.1500
     33 H33       -19.6497   -1.7111   58.2824 H       1  ZINC000478980774    0.1500
     34 H34       -15.2459    0.4224   58.9186 H       1  ZINC000478980774    0.1600
     35 H35       -10.7902   -4.2098   57.6138 H       1  ZINC000478980774    0.1100
     36 H36       -10.5412   -3.5975   55.9612 H       1  ZINC000478980774    0.1300
     37 H37        -9.8493   -0.7571   56.6256 H       1  ZINC000478980774    0.1400
     38 H38        -7.7522    0.3178   57.3397 H       1  ZINC000478980774    0.1300
     39 H39        -6.0564   -0.9818   58.5627 H       1  ZINC000478980774    0.1300
     40 H40        -6.4573   -3.3568   59.0742 H       1  ZINC000478980774    0.1300
@<TRIPOS>BOND
     1     1     2    1
     2     1    28    1
     3     1    29    1
     4     1    30    1
     5     2     3    1
     6     2     4    1
     7     2    18    1
     8     4     5    2
     9     4     6   am
    10     6     7    1
    11     6    31    1
    12     7    17   ar
    13     7     8   ar
    14     8     9   ar
    15     8    32    1
    16     9    10   ar
    17     9    33    1
    18    10    16   ar
    19    10    11    1
    20    11    12    1
    21    12    13    1
    22    12    14    1
    23    12    15    1
    24    15    16    1
    25    16    17   ar
    26    17    34    1
    27    18    19    2
    28    18    20    1
    29    20    21    1
    30    20    35    1
    31    20    36    1
    32    21    26   ar
    33    21    22   ar
    34    22    23   ar
    35    22    37    1
    36    23    24   ar
    37    23    38    1
    38    24    25   ar
    39    24    39    1
    40    25    26   ar
    41    25    40    1
    42    26    27    1
@<TRIPOS>SUBSTRUCTURE
     1 ZINC000478980774        1 TEMP              0 ****  ****    0 ROOT


##########                                Name:    ZINC000176150038
##########                DOCK_Rotatable_Bonds:                   4
##########                         Heavy_Atoms:                  23
##########                    Molecular_Weight:             333.712
##########                DOCK_Rotatable_Bonds:                   4
##########                       Formal_Charge:        -2.23517e-07
##########                     HBond_Acceptors:                  10
##########                        HBond_Donors:                   1
##########                         Heavy_Atoms:                  23
##########                          Grid_Score:          -25.402664
##########                     Grid_vdw_energy:          -24.725861
##########                      Grid_es_energy:           -0.676804
##########           Internal_energy_repulsive:            6.715948

@<TRIPOS>MOLECULE
ZINC000176150038
 32 34 1 0 0
SMALL
USER_CHARGES


@<TRIPOS>ATOM
      1 C1         -9.4351    3.0179   51.7418 C.3     1  ZINC000176150038   -0.0900
      2 C2         -8.5161    1.8930   51.3405 C.2     1  ZINC000176150038    0.2600
      3 N3         -7.5562    1.9547   50.4549 N.2     1  ZINC000176150038   -0.3300
      4 N4         -6.9628    0.8206   50.3506 N.2     1  ZINC000176150038   -0.0300
      5 N5         -7.4958   -0.0364   51.1534 N.2     1  ZINC000176150038   -0.0700
      6 N6         -8.5272    0.6355   51.8330 N.pl3   1  ZINC000176150038   -0.3300
      7 C7         -9.3886    0.1100   52.8080 C.ar    1  ZINC000176150038    0.1400
      8 C8        -10.7201   -0.1327   52.4999 C.ar    1  ZINC000176150038   -0.1000
      9 C9        -11.5701   -0.6507   53.4588 C.ar    1  ZINC000176150038   -0.1100
     10 C10       -11.0969   -0.9288   54.7281 C.ar    1  ZINC000176150038    0.1000
     11 F11       -11.9297   -1.4356   55.6634 F       1  ZINC000176150038   -0.1200
     12 C12        -9.7629   -0.6874   55.0420 C.ar    1  ZINC000176150038    0.1300
     13 N13        -9.2833   -0.9686   56.3262 N.am    1  ZINC000176150038   -0.6500
     14 C14        -8.8118    0.0271   57.1023 C.2     1  ZINC000176150038    0.5700
     15 O15        -8.8032    1.1691   56.6871 O.2     1  ZINC000176150038   -0.4800
     16 C16        -8.3033   -0.2709   58.4635 C.ar    1  ZINC000176150038    0.1400
     17 N17        -7.4657   -1.2855   58.6661 N.ar    1  ZINC000176150038   -0.4800
     18 C18        -7.0122   -1.5527   59.8717 C.ar    1  ZINC000176150038    0.3000
     19 N19        -7.3612   -0.8375   60.9234 N.ar    1  ZINC000176150038   -0.4800
     20 C20        -8.1888    0.1866   60.8076 C.ar    1  ZINC000176150038    0.1700
     21 C21        -8.6907    0.5119   59.5537 C.ar    1  ZINC000176150038   -0.1000
     22 Cl22       -9.7802    1.8480   59.3491 Cl      1  ZINC000176150038    0.0100
     23 C23        -8.9081   -0.1725   54.0786 C.ar    1  ZINC000176150038   -0.0800
     24 H24        -8.9928    3.5701   52.5710 H       1  ZINC000176150038    0.1100
     25 H25        -9.5799    3.6885   50.8948 H       1  ZINC000176150038    0.1100
     26 H26       -10.3972    2.6086   52.0499 H       1  ZINC000176150038    0.0900
     27 H27       -11.0926    0.0840   51.5096 H       1  ZINC000176150038    0.1500
     28 H28       -12.6058   -0.8382   53.2166 H       1  ZINC000176150038    0.1600
     29 H29        -9.2902   -1.8802   56.6576 H       1  ZINC000176150038    0.4300
     30 H30        -6.3341   -2.3828   60.0042 H       1  ZINC000176150038    0.2200
     31 H31        -8.4679    0.7654   61.6757 H       1  ZINC000176150038    0.1900
     32 H32        -7.8723    0.0158   54.3195 H       1  ZINC000176150038    0.1700
@<TRIPOS>BOND
     1     1     2    1
     2     1    24    1
     3     1    25    1
     4     1    26    1
     5     2     6    1
     6     2     3    2
     7     3     4    1
     8     4     5    2
     9     5     6    1
    10     6     7    1
    11     7    23   ar
    12     7     8   ar
    13     8     9   ar
    14     8    27    1
    15     9    10   ar
    16     9    28    1
    17    10    11    1
    18    10    12   ar
    19    12    13    1
    20    12    23   ar
    21    13    14   am
    22    13    29    1
    23    14    15    2
    24    14    16    1
    25    16    21   ar
    26    16    17   ar
    27    17    18   ar
    28    18    19   ar
    29    18    30    1
    30    19    20   ar
    31    20    21   ar
    32    20    31    1
    33    21    22    1
    34    23    32    1
@<TRIPOS>SUBSTRUCTURE
     1 ZINC000176150038        1 TEMP              0 ****  ****    0 ROOT


##########                                Name:    ZINC000541315701
##########                DOCK_Rotatable_Bonds:                   4
##########                         Heavy_Atoms:                  25
##########                    Molecular_Weight:             422.709
##########                DOCK_Rotatable_Bonds:                   4
##########                       Formal_Charge:           0.0300003
##########                     HBond_Acceptors:                   6
##########                        HBond_Donors:                   0
##########                         Heavy_Atoms:                  25
##########                          Grid_Score:          -25.304090
##########                     Grid_vdw_energy:          -26.046843
##########                      Grid_es_energy:            0.742753
##########           Internal_energy_repulsive:           17.580881

@<TRIPOS>MOLECULE
ZINC000541315701
 42 44 1 0 0
SMALL
USER_CHARGES


@<TRIPOS>ATOM
      1 C1         -8.4748    2.0732   61.1203 C.3     1  ZINC000541315701    0.0800
      2 N2         -8.9340    0.8319   61.7486 N.am    1  ZINC000541315701   -0.5700
      3 C3         -9.4049   -0.1750   60.9865 C.2     1  ZINC000541315701    0.5400
      4 O4         -9.7850   -1.2025   61.5066 O.2     1  ZINC000541315701   -0.5000
      5 C5         -9.4589   -0.0241   59.4880 C.3     1  ZINC000541315701   -0.1100
      6 H6         -9.9215    0.9228   59.2099 H       1  ZINC000541315701    0.1300
      7 C7         -8.0487   -0.1546   58.8675 C.3     1  ZINC000541315701   -0.1500
      8 C8         -7.9378   -1.6186   58.5028 C.2     1  ZINC000541315701    0.5200
      9 O9         -6.9010   -2.1949   58.2503 O.2     1  ZINC000541315701   -0.5200
     10 N10        -9.1555   -2.1877   58.4997 N.am    1  ZINC000541315701   -0.6100
     11 C11        -9.4077   -3.5987   58.1968 C.3     1  ZINC000541315701    0.0900
     12 C12       -10.2008   -1.2136   58.8391 C.3     1  ZINC000541315701    0.1900
     13 H13       -10.9071   -1.6491   59.5459 H       1  ZINC000541315701    0.1100
     14 C14       -10.9204   -0.7655   57.5932 C.ar    1  ZINC000541315701   -0.0900
     15 C15       -12.2167   -0.2930   57.6762 C.ar    1  ZINC000541315701   -0.1000
     16 C16       -12.8776    0.1188   56.5336 C.ar    1  ZINC000541315701   -0.1000
     17 C17       -12.2424    0.0577   55.3078 C.ar    1  ZINC000541315701   -0.1000
     18 C18       -10.9447   -0.4152   55.2241 C.ar    1  ZINC000541315701   -0.0300
     19 Cl19      -10.1459   -0.4916   53.6847 Cl      1  ZINC000541315701   -0.0600
     20 C20       -10.2821   -0.8217   56.3683 C.ar    1  ZINC000541315701   -0.0900
     21 C21        -8.8840    0.6924   63.1351 C.ar    1  ZINC000541315701    0.3800
     22 N22        -7.7892    0.2178   63.7072 N.ar    1  ZINC000541315701   -0.4700
     23 C23        -7.7000    0.0703   65.0154 C.ar    1  ZINC000541315701    0.1300
     24 C24        -8.7545    0.4086   65.8399 C.ar    1  ZINC000541315701   -0.1600
     25 C25        -9.9216    0.9102   65.2799 C.ar    1  ZINC000541315701   -0.0400
     26 C26        -9.9833    1.0586   63.9050 C.ar    1  ZINC000541315701   -0.1300
     27 Br27      -11.5456    1.7372   63.0834 Br      1  ZINC000541315701   -0.0200
     28 H28        -9.0804    2.2793   60.2378 H       1  ZINC000541315701    0.0900
     29 H29        -8.5721    2.8964   61.8282 H       1  ZINC000541315701    0.0800
     30 H30        -7.4302    1.9673   60.8276 H       1  ZINC000541315701    0.0700
     31 H31        -7.9648    0.4679   57.9767 H       1  ZINC000541315701    0.1200
     32 H32        -7.2846    0.1160   59.5965 H       1  ZINC000541315701    0.1100
     33 H33        -8.4636   -4.0979   57.9788 H       1  ZINC000541315701    0.0900
     34 H34        -9.8813   -4.0756   59.0549 H       1  ZINC000541315701    0.0700
     35 H35       -10.0660   -3.6724   57.3311 H       1  ZINC000541315701    0.0600
     36 H36       -12.7138   -0.2458   58.6339 H       1  ZINC000541315701    0.1300
     37 H37       -13.8904    0.4879   56.5990 H       1  ZINC000541315701    0.1400
     38 H38       -12.7589    0.3787   54.4153 H       1  ZINC000541315701    0.1400
     39 H39        -9.2692   -1.1908   56.3036 H       1  ZINC000541315701    0.1400
     40 H40        -6.7903   -0.3207   65.4468 H       1  ZINC000541315701    0.1700
     41 H41        -8.6723    0.2840   66.9096 H       1  ZINC000541315701    0.1500
     42 H42       -10.7606    1.1823   65.9031 H       1  ZINC000541315701    0.1500
@<TRIPOS>BOND
     1     1     2    1
     2     1    28    1
     3     1    29    1
     4     1    30    1
     5     2     3   am
     6     2    21    1
     7     3     4    2
     8     3     5    1
     9     5     6    1
    10     5    12    1
    11     5     7    1
    12     7     8    1
    13     7    31    1
    14     7    32    1
    15     8     9    2
    16     8    10   am
    17    10    11    1
    18    10    12    1
    19    11    33    1
    20    11    34    1
    21    11    35    1
    22    12    13    1
    23    12    14    1
    24    14    20   ar
    25    14    15   ar
    26    15    16   ar
    27    15    36    1
    28    16    17   ar
    29    16    37    1
    30    17    18   ar
    31    17    38    1
    32    18    19    1
    33    18    20   ar
    34    20    39    1
    35    21    26   ar
    36    21    22   ar
    37    22    23   ar
    38    23    24   ar
    39    23    40    1
    40    24    25   ar
    41    24    41    1
    42    25    26   ar
    43    25    42    1
    44    26    27    1
@<TRIPOS>SUBSTRUCTURE
     1 ZINC000541315701        1 TEMP              0 ****  ****    0 ROOT


##########                                Name:    ZINC001023407238
##########                DOCK_Rotatable_Bonds:                   7
##########                         Heavy_Atoms:                  25
##########                    Molecular_Weight:             349.387
##########                DOCK_Rotatable_Bonds:                   7
##########                       Formal_Charge:          -0.0300008
##########                     HBond_Acceptors:                   8
##########                        HBond_Donors:                   2
##########                         Heavy_Atoms:                  25
##########                          Grid_Score:          -25.104877
##########                     Grid_vdw_energy:          -24.133669
##########                      Grid_es_energy:           -0.971209
##########           Internal_energy_repulsive:           25.142687

@<TRIPOS>MOLECULE
ZINC001023407238
 48 50 1 0 0
SMALL
USER_CHARGES


@<TRIPOS>ATOM
      1 C1        -11.7119   -0.6735   60.1594 C.3     1  ZINC001023407238   -0.0900
      2 C2        -10.2088   -0.7482   60.2382 C.2     1  ZINC001023407238   -0.1100
      3 C3         -9.3640   -1.2792   59.2869 C.2     1  ZINC001023407238   -0.0500
      4 C4         -9.7642   -1.8768   58.0085 C.2     1  ZINC001023407238    0.6100
      5 O5        -10.3087   -2.9649   57.9895 O.2     1  ZINC001023407238   -0.5100
      6 N6         -9.5287   -1.2208   56.8550 N.am    1  ZINC001023407238   -0.6100
      7 C7         -9.8759   -1.7014   55.5096 C.3     1  ZINC001023407238    0.0800
      8 C8         -9.4429   -0.6106   54.5075 C.3     1  ZINC001023407238    0.0900
      9 H9         -8.4595   -0.8350   54.0943 H       1  ZINC001023407238    0.0800
     10 O10       -10.4083   -0.4715   53.4632 O.3     1  ZINC001023407238   -0.5500
     11 C11        -9.3908    0.6674   55.3858 C.3     1  ZINC001023407238    0.1400
     12 H12       -10.3825    1.1057   55.4971 H       1  ZINC001023407238    0.1200
     13 N13        -8.4467    1.6438   54.8367 N.am    1  ZINC001023407238   -0.7200
     14 C14        -8.9018    2.7947   54.3029 C.2     1  ZINC001023407238    0.5200
     15 O15       -10.0930    3.0212   54.2758 O.2     1  ZINC001023407238   -0.5300
     16 C16        -7.9305    3.7999   53.7396 C.3     1  ZINC001023407238   -0.1300
     17 C17        -7.1799    3.1783   52.5602 C.3     1  ZINC001023407238   -0.1100
     18 H18        -6.7506    3.9525   51.9240 H       1  ZINC001023407238    0.1100
     19 C19        -6.0872    2.2036   53.0550 C.3     1  ZINC001023407238    0.0600
     20 O20        -6.0685    1.1408   52.0566 O.3     1  ZINC001023407238   -0.3500
     21 C21        -7.2918    0.9876   51.5301 C.2     1  ZINC001023407238    0.4800
     22 O22        -7.6856   -0.0055   50.9655 O.2     1  ZINC001023407238   -0.4600
     23 C23        -8.1073    2.2487   51.7461 C.3     1  ZINC001023407238   -0.1800
     24 C24        -8.8859    0.1005   56.7337 C.3     1  ZINC001023407238    0.1000
     25 N25        -8.0763   -1.1459   59.7551 N.pl3   1  ZINC001023407238   -0.4200
     26 C26        -6.8640   -1.5802   59.0566 C.3     1  ZINC001023407238    0.0700
     27 C27        -8.1169   -0.5460   60.9697 C.2     1  ZINC001023407238    0.0100
     28 C28        -9.4079   -0.2866   61.2873 C.2     1  ZINC001023407238   -0.2000
     29 H29       -12.0047    0.2626   59.6838 H       1  ZINC001023407238    0.0600
     30 H30       -12.0871   -1.5120   59.5726 H       1  ZINC001023407238    0.0600
     31 H31       -12.1311   -0.7170   61.1646 H       1  ZINC001023407238    0.0700
     32 H32        -9.3451   -2.6298   55.2992 H       1  ZINC001023407238    0.0800
     33 H33       -10.9516   -1.8629   55.4398 H       1  ZINC001023407238    0.0800
     34 H34       -10.4279    0.4073   53.0601 H       1  ZINC001023407238    0.3900
     35 H35        -7.4941    1.4622   54.8573 H       1  ZINC001023407238    0.4100
     36 H36        -8.4754    4.6807   53.4000 H       1  ZINC001023407238    0.1000
     37 H37        -7.2180    4.0890   54.5121 H       1  ZINC001023407238    0.1100
     38 H38        -5.1201    2.7048   53.0956 H       1  ZINC001023407238    0.1200
     39 H39        -6.3501    1.8019   54.0336 H       1  ZINC001023407238    0.0800
     40 H40        -9.0098    2.0242   52.3146 H       1  ZINC001023407238    0.1100
     41 H41        -8.3639    2.7032   50.7892 H       1  ZINC001023407238    0.1200
     42 H42        -9.1880    0.7500   57.5554 H       1  ZINC001023407238    0.0900
     43 H43        -7.8018   -0.0112   56.7162 H       1  ZINC001023407238    0.0800
     44 H44        -6.4462   -0.7422   58.4986 H       1  ZINC001023407238    0.0800
     45 H45        -6.1326   -1.9333   59.7836 H       1  ZINC001023407238    0.0900
     46 H46        -7.1111   -2.3882   58.3680 H       1  ZINC001023407238    0.0800
     47 H47        -7.2597   -0.3099   61.5826 H       1  ZINC001023407238    0.1700
     48 H48        -9.7571    0.1863   62.1933 H       1  ZINC001023407238    0.1400
@<TRIPOS>BOND
     1     1     2    1
     2     1    29    1
     3     1    30    1
     4     1    31    1
     5     2    28    1
     6     2     3    2
     7     3     4    1
     8     3    25    1
     9     4     5    2
    10     4     6   am
    11     6    24    1
    12     6     7    1
    13     7     8    1
    14     7    32    1
    15     7    33    1
    16     8     9    1
    17     8    10    1
    18     8    11    1
    19    10    34    1
    20    11    12    1
    21    11    13    1
    22    11    24    1
    23    13    14   am
    24    13    35    1
    25    14    15    2
    26    14    16    1
    27    16    17    1
    28    16    36    1
    29    16    37    1
    30    17    18    1
    31    17    23    1
    32    17    19    1
    33    19    20    1
    34    19    38    1
    35    19    39    1
    36    20    21    1
    37    21    22    2
    38    21    23    1
    39    23    40    1
    40    23    41    1
    41    24    42    1
    42    24    43    1
    43    25    26    1
    44    25    27    1
    45    26    44    1
    46    26    45    1
    47    26    46    1
    48    27    28    2
    49    27    47    1
    50    28    48    1
@<TRIPOS>SUBSTRUCTURE
     1 ZINC001023407238        1 TEMP              0 ****  ****    0 ROOT


##########                                Name:    ZINC000004040798
##########                DOCK_Rotatable_Bonds:                   3
##########                         Heavy_Atoms:                  22
##########                    Molecular_Weight:             361.151
##########                DOCK_Rotatable_Bonds:                   3
##########                       Formal_Charge:           0.0200003
##########                     HBond_Acceptors:                   6
##########                        HBond_Donors:                   1
##########                         Heavy_Atoms:                  22
##########                          Grid_Score:          -25.092310
##########                     Grid_vdw_energy:          -24.011209
##########                      Grid_es_energy:           -1.081101
##########           Internal_energy_repulsive:            2.179246

@<TRIPOS>MOLECULE
ZINC000004040798
 31 33 1 0 0
SMALL
USER_CHARGES


@<TRIPOS>ATOM
      1 O1         -5.8958    2.4300   49.4212 O.2     1  ZINC000004040798   -0.4800
      2 C2         -4.8592    1.8973   49.7705 C.2     1  ZINC000004040798    0.6100
      3 N3         -4.7866    1.2850   50.9690 N.am    1  ZINC000004040798   -0.6600
      4 C4         -5.9011    1.2669   51.8136 C.ar    1  ZINC000004040798    0.2300
      5 C5         -6.9865    0.4536   51.5162 C.ar    1  ZINC000004040798   -0.1300
      6 C6         -8.0860    0.4381   52.3524 C.ar    1  ZINC000004040798   -0.0100
      7 C7         -8.1069    1.2312   53.4847 C.ar    1  ZINC000004040798   -0.0600
      8 N8         -9.2869    1.2117   54.3781 N.pl3   1  ZINC000004040798    0.0300
      9 O9        -10.2380    0.4975   54.1154 O.2     1  ZINC000004040798   -0.1500
     10 O10        -9.3068    1.9097   55.3761 O.2     1  ZINC000004040798   -0.1500
     11 C11        -7.0277    2.0423   53.7848 C.ar    1  ZINC000004040798    0.0000
     12 C12        -5.9225    2.0589   52.9557 C.ar    1  ZINC000004040798   -0.1400
     13 Br13       -4.4472    3.1681   53.3665 Br      1  ZINC000004040798    0.0000
     14 C14        -3.6882    1.9162   48.8831 C.2     1  ZINC000004040798   -0.0500
     15 C15        -2.4606    1.4277   49.1982 C.2     1  ZINC000004040798   -0.0800
     16 C16        -1.6188    1.6599   48.0251 C.ar    1  ZINC000004040798   -0.1500
     17 C17        -0.2827    1.3937   47.7175 C.ar    1  ZINC000004040798   -0.0500
     18 C18         0.2142    1.7474   46.4945 C.ar    1  ZINC000004040798   -0.1400
     19 C19        -0.5997    2.3689   45.5577 C.ar    1  ZINC000004040798   -0.0700
     20 C20        -1.9209    2.6403   45.8417 C.ar    1  ZINC000004040798   -0.1100
     21 C21        -2.4489    2.2895   47.0786 C.ar    1  ZINC000004040798    0.0800
     22 O22        -3.6717    2.4164   47.6298 O.3     1  ZINC000004040798   -0.1900
     23 H23        -3.9613    0.8567   51.2456 H       1  ZINC000004040798    0.4300
     24 H24        -6.9713   -0.1660   50.6316 H       1  ZINC000004040798    0.1800
     25 H25        -8.9305   -0.1940   52.1211 H       1  ZINC000004040798    0.1700
     26 H26        -7.0471    2.6606   54.6701 H       1  ZINC000004040798    0.1700
     27 H27        -2.1657    0.9626   50.1273 H       1  ZINC000004040798    0.1800
     28 H28         0.3551    0.9110   48.4431 H       1  ZINC000004040798    0.1400
     29 H29         1.2472    1.5422   46.2555 H       1  ZINC000004040798    0.1400
     30 H30        -0.1931    2.6433   44.5955 H       1  ZINC000004040798    0.1400
     31 H31        -2.5447    3.1241   45.1046 H       1  ZINC000004040798    0.1400
@<TRIPOS>BOND
     1     1     2    2
     2     2     3   am
     3     2    14    1
     4     3     4    1
     5     3    23    1
     6     4    12   ar
     7     4     5   ar
     8     5     6   ar
     9     5    24    1
    10     6     7   ar
    11     6    25    1
    12     7     8    1
    13     7    11   ar
    14     8     9    2
    15     8    10    2
    16    11    12   ar
    17    11    26    1
    18    12    13    1
    19    14    22    1
    20    14    15    2
    21    15    16    1
    22    15    27    1
    23    16    21   ar
    24    16    17   ar
    25    17    18   ar
    26    17    28    1
    27    18    19   ar
    28    18    29    1
    29    19    20   ar
    30    19    30    1
    31    20    21   ar
    32    20    31    1
    33    21    22    1
@<TRIPOS>SUBSTRUCTURE
     1 ZINC000004040798        1 TEMP              0 ****  ****    0 ROOT


##########                                Name:    ZINC000057429281
##########                DOCK_Rotatable_Bonds:                  10
##########                         Heavy_Atoms:                  23
##########                    Molecular_Weight:             331.295
##########                DOCK_Rotatable_Bonds:                  10
##########                       Formal_Charge:          -0.0100002
##########                     HBond_Acceptors:                   9
##########                        HBond_Donors:                   5
##########                         Heavy_Atoms:                  23
##########                          Grid_Score:          -25.020641
##########                     Grid_vdw_energy:          -23.924110
##########                      Grid_es_energy:           -1.096532
##########           Internal_energy_repulsive:            8.325337

@<TRIPOS>MOLECULE
ZINC000057429281
 39 39 1 0 0
SMALL
USER_CHARGES


@<TRIPOS>ATOM
      1 C1         -8.6252    2.4286   58.4967 C.3     1  ZINC000057429281   -0.1500
      2 C2         -8.1690    1.3028   57.5664 C.3     1  ZINC000057429281   -0.0400
      3 H3         -9.0242    0.9263   57.0052 H       1  ZINC000057429281    0.0900
      4 C4         -7.5642    0.1688   58.3964 C.3     1  ZINC000057429281   -0.1300
      5 C5         -8.5314   -0.9857   58.4495 C.2     1  ZINC000057429281    0.5200
      6 O6         -9.6784   -0.8004   58.7970 O.2     1  ZINC000057429281   -0.5300
      7 N7         -8.1216   -2.2242   58.1109 N.am    1  ZINC000057429281   -0.7000
      8 C8         -9.0613   -3.3469   58.1643 C.3     1  ZINC000057429281    0.1100
      9 C9         -9.9201   -3.3424   56.9259 C.2     1  ZINC000057429281    0.5200
     10 N10       -11.2526   -3.5158   57.0294 N.am    1  ZINC000057429281   -0.8500
     11 O11        -9.4121   -3.1830   55.8363 O.2     1  ZINC000057429281   -0.5100
     12 C12        -8.2935   -4.6416   58.2386 C.2     1  ZINC000057429281    0.5300
     13 N13        -7.0464   -4.6570   58.7492 N.am    1  ZINC000057429281   -0.8400
     14 O14        -8.7980   -5.6695   57.8389 O.2     1  ZINC000057429281   -0.5100
     15 C15        -7.1330    1.8319   56.6083 C.ar    1  ZINC000057429281   -0.0500
     16 C16        -5.8911    2.2176   57.0771 C.ar    1  ZINC000057429281   -0.1200
     17 C17        -4.9407    2.7028   56.1982 C.ar    1  ZINC000057429281   -0.0700
     18 C18        -5.2322    2.8019   54.8506 C.ar    1  ZINC000057429281   -0.1900
     19 C19        -4.1963    3.3312   53.8926 C.3     1  ZINC000057429281    0.5100
     20 F20        -3.3296    4.1935   54.5725 F       1  ZINC000057429281   -0.1800
     21 F21        -3.4673    2.2638   53.3575 F       1  ZINC000057429281   -0.1800
     22 F22        -4.8306    4.0277   52.8582 F       1  ZINC000057429281   -0.1800
     23 C23        -6.4736    2.4148   54.3817 C.ar    1  ZINC000057429281   -0.0700
     24 C24        -7.4226    1.9260   55.2599 C.ar    1  ZINC000057429281   -0.1100
     25 H25        -9.0561    3.2365   57.9054 H       1  ZINC000057429281    0.0600
     26 H26        -9.3746    2.0460   59.1897 H       1  ZINC000057429281    0.0800
     27 H27        -7.7701    2.8052   59.0579 H       1  ZINC000057429281    0.0500
     28 H28        -6.6314   -0.1594   57.9380 H       1  ZINC000057429281    0.1000
     29 H29        -7.3668    0.5241   59.4077 H       1  ZINC000057429281    0.1000
     30 H30        -7.2044   -2.3723   57.8319 H       1  ZINC000057429281    0.4200
     31 H31        -9.6946   -3.2489   59.0460 H       1  ZINC000057429281    0.1300
     32 H32       -11.8055   -3.5129   56.2324 H       1  ZINC000057429281    0.4000
     33 H33       -11.6588   -3.6435   57.9009 H       1  ZINC000057429281    0.4100
     34 H34        -6.5522   -5.4904   58.7970 H       1  ZINC000057429281    0.4000
     35 H35        -6.6430   -3.8349   59.0689 H       1  ZINC000057429281    0.4100
     36 H36        -5.6634    2.1402   58.1300 H       1  ZINC000057429281    0.1400
     37 H37        -3.9707    3.0048   56.5645 H       1  ZINC000057429281    0.1400
     38 H38        -6.7012    2.4918   53.3287 H       1  ZINC000057429281    0.1400
     39 H39        -8.3925    1.6236   54.8935 H       1  ZINC000057429281    0.1400
@<TRIPOS>BOND
     1     1     2    1
     2     1    25    1
     3     1    26    1
     4     1    27    1
     5     2     3    1
     6     2     4    1
     7     2    15    1
     8     4     5    1
     9     4    28    1
    10     4    29    1
    11     5     6    2
    12     5     7   am
    13     7     8    1
    14     7    30    1
    15     8     9    1
    16     8    12    1
    17     8    31    1
    18     9    10   am
    19     9    11    2
    20    10    32    1
    21    10    33    1
    22    12    13   am
    23    12    14    2
    24    13    34    1
    25    13    35    1
    26    15    24   ar
    27    15    16   ar
    28    16    17   ar
    29    16    36    1
    30    17    18   ar
    31    17    37    1
    32    18    19    1
    33    18    23   ar
    34    19    20    1
    35    19    21    1
    36    19    22    1
    37    23    24   ar
    38    23    38    1
    39    24    39    1
@<TRIPOS>SUBSTRUCTURE
     1 ZINC000057429281        1 TEMP              0 ****  ****    0 ROOT


##########                                Name:    ZINC000279974681
##########                DOCK_Rotatable_Bonds:                   4
##########                         Heavy_Atoms:                  23
##########                    Molecular_Weight:              338.79
##########                DOCK_Rotatable_Bonds:                   4
##########                       Formal_Charge:           0.0100008
##########                     HBond_Acceptors:                   7
##########                        HBond_Donors:                   1
##########                         Heavy_Atoms:                  23
##########                          Grid_Score:          -24.968338
##########                     Grid_vdw_energy:          -24.780432
##########                      Grid_es_energy:           -0.187905
##########           Internal_energy_repulsive:           14.745146

@<TRIPOS>MOLECULE
ZINC000279974681
 42 45 1 0 0
SMALL
USER_CHARGES


@<TRIPOS>ATOM
      1 C1        -12.4264   -2.6957   56.6445 C.3     1  ZINC000279974681   -0.1400
      2 C2        -11.3570   -1.6043   56.7230 C.3     1  ZINC000279974681    0.0700
      3 H3        -11.8364   -0.6256   56.7433 H       1  ZINC000279974681    0.0600
      4 C4        -10.4380   -1.6991   55.4996 C.3     1  ZINC000279974681    0.1000
      5 N5         -9.3143   -0.7684   55.6901 N.am    1  ZINC000279974681   -0.6300
      6 C6         -8.9741    0.1144   54.7301 C.2     1  ZINC000279974681    0.7100
      7 O7         -8.0422    0.8752   54.9064 O.2     1  ZINC000279974681   -0.5600
      8 N8         -9.6669    0.1536   53.5746 N.am    1  ZINC000279974681   -0.6700
      9 C9         -9.3129    1.0719   52.5761 C.ar    1  ZINC000279974681    0.2000
     10 C10        -8.2994    0.7656   51.6792 C.ar    1  ZINC000279974681   -0.1200
     11 C11        -7.9504    1.6729   50.6926 C.ar    1  ZINC000279974681    0.0700
     12 C12        -8.6177    2.8918   50.6024 C.ar    1  ZINC000279974681    0.0200
     13 C13        -9.6290    3.1947   51.4999 C.ar    1  ZINC000279974681   -0.0700
     14 C14        -9.9809    2.2863   52.4808 C.ar    1  ZINC000279974681   -0.0700
     15 Cl15      -11.2483    2.6694   53.6035 Cl      1  ZINC000279974681   -0.0500
     16 O16        -8.0933    3.5998   49.5585 O.3     1  ZINC000279974681   -0.3000
     17 C17        -6.8279    2.9769   49.2688 C.3     1  ZINC000279974681    0.2100
     18 O18        -7.0083    1.6170   49.7059 O.3     1  ZINC000279974681   -0.3000
     19 C19        -8.5732   -0.8295   56.9599 C.3     1  ZINC000279974681    0.0800
     20 C20        -9.5830   -0.7772   58.1121 C.3     1  ZINC000279974681    0.1100
     21 H21       -10.0553    0.2049   58.1379 H       1  ZINC000279974681    0.0700
     22 C22        -8.8607   -1.0319   59.4366 C.3     1  ZINC000279974681   -0.1600
     23 C23        -7.3385   -1.1804   59.3940 C.3     1  ZINC000279974681   -0.1700
     24 C24        -7.9676    0.0851   59.9804 C.3     1  ZINC000279974681   -0.1600
     25 O25       -10.5810   -1.7807   57.9106 O.3     1  ZINC000279974681   -0.3600
     26 H26       -13.0784   -2.6289   57.5155 H       1  ZINC000279974681    0.0700
     27 H27       -13.0165   -2.5617   55.7379 H       1  ZINC000279974681    0.0800
     28 H28       -11.9463   -3.6741   56.6242 H       1  ZINC000279974681    0.0700
     29 H29       -10.0595   -2.7166   55.4028 H       1  ZINC000279974681    0.0800
     30 H30       -10.9927   -1.4261   54.6019 H       1  ZINC000279974681    0.1100
     31 H31       -10.4102   -0.4534   53.4341 H       1  ZINC000279974681    0.4100
     32 H32        -7.7825   -0.1800   51.7508 H       1  ZINC000279974681    0.1800
     33 H33       -10.1464    4.1402   51.4301 H       1  ZINC000279974681    0.1500
     34 H34        -6.6202    3.0113   48.1994 H       1  ZINC000279974681    0.1400
     35 H35        -6.0271    3.4570   49.8313 H       1  ZINC000279974681    0.0900
     36 H36        -8.0069   -1.7595   57.0101 H       1  ZINC000279974681    0.0900
     37 H37        -7.8929    0.0193   57.0291 H       1  ZINC000279974681    0.0900
     38 H38        -9.4058   -1.6378   60.1603 H       1  ZINC000279974681    0.1100
     39 H39        -6.8818   -1.8842   60.0898 H       1  ZINC000279974681    0.1000
     40 H40        -6.8516   -1.0965   58.4225 H       1  ZINC000279974681    0.1000
     41 H41        -7.8947    1.0014   59.3945 H       1  ZINC000279974681    0.1000
     42 H42        -7.9249    0.2137   61.0619 H       1  ZINC000279974681    0.1000
@<TRIPOS>BOND
     1     1     2    1
     2     1    26    1
     3     1    27    1
     4     1    28    1
     5     2     3    1
     6     2    25    1
     7     2     4    1
     8     4     5    1
     9     4    29    1
    10     4    30    1
    11     5     6   am
    12     5    19    1
    13     6     7    2
    14     6     8   am
    15     8     9    1
    16     8    31    1
    17     9    14   ar
    18     9    10   ar
    19    10    11   ar
    20    10    32    1
    21    11    18    1
    22    11    12   ar
    23    12    13   ar
    24    12    16    1
    25    13    14   ar
    26    13    33    1
    27    14    15    1
    28    16    17    1
    29    17    18    1
    30    17    34    1
    31    17    35    1
    32    19    20    1
    33    19    36    1
    34    19    37    1
    35    20    21    1
    36    20    22    1
    37    20    25    1
    38    22    24    1
    39    22    23    1
    40    22    38    1
    41    23    24    1
    42    23    39    1
    43    23    40    1
    44    24    41    1
    45    24    42    1
@<TRIPOS>SUBSTRUCTURE
     1 ZINC000279974681        1 TEMP              0 ****  ****    0 ROOT


##########                                Name:    ZINC000345028113
##########                DOCK_Rotatable_Bonds:                   5
##########                         Heavy_Atoms:                  21
##########                    Molecular_Weight:             331.838
##########                DOCK_Rotatable_Bonds:                   5
##########                       Formal_Charge:         4.47035e-07
##########                     HBond_Acceptors:                   6
##########                        HBond_Donors:                   0
##########                         Heavy_Atoms:                  21
##########                          Grid_Score:          -24.941944
##########                     Grid_vdw_energy:          -22.438299
##########                      Grid_es_energy:           -2.503645
##########           Internal_energy_repulsive:           13.528354

@<TRIPOS>MOLECULE
ZINC000345028113
 40 41 1 0 0
SMALL
USER_CHARGES


@<TRIPOS>ATOM
      1 C1         -4.6635    2.9677   53.9670 C.3     1  ZINC000345028113   -0.1700
      2 C2         -5.9089    3.3809   54.7540 C.3     1  ZINC000345028113    0.1400
      3 H3         -6.8005    3.0363   54.2302 H       1  ZINC000345028113    0.1100
      4 C4         -5.9493    4.9075   54.8813 C.3     1  ZINC000345028113   -0.0700
      5 H5         -6.8553    5.2063   55.4086 H       1  ZINC000345028113    0.0900
      6 C6         -5.9351    5.5389   53.4877 C.3     1  ZINC000345028113   -0.1400
      7 S7         -4.4910    5.4559   55.8171 S.3     1  ZINC000345028113   -0.2400
      8 C8         -4.6154    4.4720   57.3400 C.3     1  ZINC000345028113   -0.1100
      9 C9         -4.7100    2.9895   56.9638 C.3     1  ZINC000345028113    0.1000
     10 N10        -5.8644    2.7807   56.0883 N.am    1  ZINC000345028113   -0.6100
     11 C11        -6.8973    2.0275   56.5153 C.2     1  ZINC000345028113    0.5200
     12 O12        -7.8576    1.8516   55.7957 O.2     1  ZINC000345028113   -0.5300
     13 C13        -6.8591    1.4042   57.8867 C.3     1  ZINC000345028113   -0.1400
     14 C14        -8.1037    0.5374   58.0879 C.3     1  ZINC000345028113    0.0700
     15 O15        -8.1252   -0.5004   57.1057 O.3     1  ZINC000345028113   -0.3000
     16 C16        -8.0191   -1.7789   57.5562 C.ar    1  ZINC000345028113    0.1300
     17 C17        -6.8717   -2.1885   58.2180 C.ar    1  ZINC000345028113   -0.1700
     18 C18        -6.7652   -3.4881   58.6758 C.ar    1  ZINC000345028113   -0.1100
     19 C19        -7.8033   -4.3814   58.4742 C.ar    1  ZINC000345028113    0.0800
     20 F20        -7.6976   -5.6513   58.9229 F       1  ZINC000345028113   -0.1300
     21 C21        -8.9503   -3.9745   57.8135 C.ar    1  ZINC000345028113   -0.1100
     22 C22        -9.0620   -2.6739   57.3590 C.ar    1  ZINC000345028113   -0.0400
     23 Cl23      -10.4997   -2.1636   56.5308 Cl      1  ZINC000345028113   -0.0400
     24 H24        -4.6348    1.8818   53.8764 H       1  ZINC000345028113    0.0600
     25 H25        -4.6967    3.4146   52.9735 H       1  ZINC000345028113    0.0800
     26 H26        -3.7719    3.3122   54.4908 H       1  ZINC000345028113    0.0800
     27 H27        -6.8053    5.1990   52.9260 H       1  ZINC000345028113    0.0800
     28 H28        -5.9640    6.6246   53.5805 H       1  ZINC000345028113    0.0700
     29 H29        -5.0262    5.2429   52.9640 H       1  ZINC000345028113    0.0700
     30 H30        -3.7307    4.6370   57.9550 H       1  ZINC000345028113    0.1200
     31 H31        -5.5074    4.7661   57.8932 H       1  ZINC000345028113    0.0900
     32 H32        -3.8007    2.6878   56.4441 H       1  ZINC000345028113    0.0900
     33 H33        -4.8270    2.3919   57.8678 H       1  ZINC000345028113    0.1000
     34 H34        -5.9665    0.7854   57.9798 H       1  ZINC000345028113    0.1100
     35 H35        -6.8372    2.1895   58.6423 H       1  ZINC000345028113    0.1100
     36 H36        -8.0811    0.0947   59.0837 H       1  ZINC000345028113    0.0800
     37 H37        -8.9966    1.1540   57.9846 H       1  ZINC000345028113    0.0800
     38 H38        -6.0612   -1.4923   58.3753 H       1  ZINC000345028113    0.1500
     39 H39        -5.8713   -3.8072   59.1910 H       1  ZINC000345028113    0.1500
     40 H40        -9.7594   -4.6726   57.6566 H       1  ZINC000345028113    0.1500
@<TRIPOS>BOND
     1     1     2    1
     2     1    24    1
     3     1    25    1
     4     1    26    1
     5     2     3    1
     6     2    10    1
     7     2     4    1
     8     4     5    1
     9     4     6    1
    10     4     7    1
    11     6    27    1
    12     6    28    1
    13     6    29    1
    14     7     8    1
    15     8     9    1
    16     8    30    1
    17     8    31    1
    18     9    10    1
    19     9    32    1
    20     9    33    1
    21    10    11   am
    22    11    12    2
    23    11    13    1
    24    13    14    1
    25    13    34    1
    26    13    35    1
    27    14    15    1
    28    14    36    1
    29    14    37    1
    30    15    16    1
    31    16    22   ar
    32    16    17   ar
    33    17    18   ar
    34    17    38    1
    35    18    19   ar
    36    18    39    1
    37    19    20    1
    38    19    21   ar
    39    21    22   ar
    40    21    40    1
    41    22    23    1
@<TRIPOS>SUBSTRUCTURE
     1 ZINC000345028113        1 TEMP              0 ****  ****    0 ROOT


##########                                Name:    ZINC000656860804
##########                DOCK_Rotatable_Bonds:                   2
##########                         Heavy_Atoms:                  19
##########                    Molecular_Weight:             388.068
##########                DOCK_Rotatable_Bonds:                   2
##########                       Formal_Charge:          8.9407e-08
##########                     HBond_Acceptors:                   8
##########                        HBond_Donors:                   1
##########                         Heavy_Atoms:                  19
##########                          Grid_Score:          -24.895950
##########                     Grid_vdw_energy:          -24.118637
##########                      Grid_es_energy:           -0.777313
##########           Internal_energy_repulsive:           17.952290

@<TRIPOS>MOLECULE
ZINC000656860804
 28 29 1 0 0
SMALL
USER_CHARGES


@<TRIPOS>ATOM
      1 O1         -7.7059   -0.2217   51.1512 O.2     1  ZINC000656860804   -0.5400
      2 C2         -7.0153    0.7185   51.4828 C.2     1  ZINC000656860804    0.5100
      3 C3         -5.7547    0.9913   50.7084 C.3     1  ZINC000656860804    0.1100
      4 N4         -5.2501    2.3232   51.0740 N.am    1  ZINC000656860804   -1.0000
      5 S5         -4.6756    3.3714   49.9278 S.o2    1  ZINC000656860804    2.6900
      6 O6         -5.6975    3.4941   48.9481 O.2     1  ZINC000656860804   -0.9200
      7 O7         -4.1376    4.4815   50.6329 O.2     1  ZINC000656860804   -0.9300
      8 C8         -3.3164    2.5809   49.1326 C.ar    1  ZINC000656860804   -0.6500
      9 C9         -3.3590    2.3355   47.7734 C.ar    1  ZINC000656860804    0.0100
     10 C10        -2.2920    1.7148   47.1485 C.ar    1  ZINC000656860804   -0.0400
     11 Cl11       -2.3453    1.4069   45.4409 Cl      1  ZINC000656860804   -0.0200
     12 C12        -1.1815    1.3397   47.8854 C.ar    1  ZINC000656860804    0.0200
     13 Cl13        0.1580    0.5615   47.1020 Cl      1  ZINC000656860804   -0.0100
     14 C14        -1.1396    1.5859   49.2460 C.ar    1  ZINC000656860804   -0.0900
     15 C15        -2.2044    2.2115   49.8684 C.ar    1  ZINC000656860804    0.0100
     16 Br16       -2.1473    2.5479   51.7283 Br      1  ZINC000656860804    0.0100
     17 C17        -5.2769    2.6874   52.5006 C.3     1  ZINC000656860804    0.0900
     18 C18        -6.7329    2.6714   52.9703 C.3     1  ZINC000656860804    0.0800
     19 N19        -7.4112    1.4665   52.5138 N.am    1  ZINC000656860804   -0.7100
     20 H20        -5.0060    0.2376   50.9526 H       1  ZINC000656860804    0.1200
     21 H21        -5.9690    0.9626   49.6401 H       1  ZINC000656860804    0.1200
     22 H22        -4.2256    2.6277   47.1988 H       1  ZINC000656860804    0.1700
     23 H23        -0.2738    1.2932   49.8213 H       1  ZINC000656860804    0.1700
     24 H24        -4.6971    1.9653   53.0755 H       1  ZINC000656860804    0.1000
     25 H25        -4.8585    3.6851   52.6335 H       1  ZINC000656860804    0.1200
     26 H26        -6.7590    2.7098   54.0593 H       1  ZINC000656860804    0.1000
     27 H27        -7.2489    3.5435   52.5688 H       1  ZINC000656860804    0.0800
     28 H28        -8.2034    1.1842   52.9972 H       1  ZINC000656860804    0.4000
@<TRIPOS>BOND
     1     1     2    2
     2     2    19   am
     3     2     3    1
     4     3     4    1
     5     3    20    1
     6     3    21    1
     7     4     5   am
     8     4    17    1
     9     5     6    2
    10     5     7    2
    11     5     8    1
    12     8    15   ar
    13     8     9   ar
    14     9    10   ar
    15     9    22    1
    16    10    11    1
    17    10    12   ar
    18    12    13    1
    19    12    14   ar
    20    14    15   ar
    21    14    23    1
    22    15    16    1
    23    17    18    1
    24    17    24    1
    25    17    25    1
    26    18    19    1
    27    18    26    1
    28    18    27    1
    29    19    28    1
@<TRIPOS>SUBSTRUCTURE
     1 ZINC000656860804        1 TEMP              0 ****  ****    0 ROOT


##########                                Name:    ZINC000742270208
##########                DOCK_Rotatable_Bonds:                   5
##########                         Heavy_Atoms:                  25
##########                    Molecular_Weight:             376.328
##########                DOCK_Rotatable_Bonds:                   5
##########                       Formal_Charge:                0.02
##########                     HBond_Acceptors:                   9
##########                        HBond_Donors:                   0
##########                         Heavy_Atoms:                  25
##########                          Grid_Score:          -24.864407
##########                     Grid_vdw_energy:          -23.685360
##########                      Grid_es_energy:           -1.179047
##########           Internal_energy_repulsive:           12.665595

@<TRIPOS>MOLECULE
ZINC000742270208
 37 38 1 0 0
SMALL
USER_CHARGES


@<TRIPOS>ATOM
      1 C1         -4.0500    2.7728   49.0311 C.3     1  ZINC000742270208   -0.1400
      2 C2         -4.6758    3.0892   50.3911 C.3     1  ZINC000742270208   -0.1400
      3 C3         -4.9674    4.5884   50.4819 C.3     1  ZINC000742270208   -0.1400
      4 C4         -5.9609    2.3172   50.5444 C.2     1  ZINC000742270208    0.4000
      5 O5         -6.5569    1.9306   49.5618 O.2     1  ZINC000742270208   -0.4300
      6 C6         -6.4926    2.0326   51.8868 C.ar    1  ZINC000742270208   -0.1000
      7 C7         -7.6584    1.2746   52.0349 C.ar    1  ZINC000742270208   -0.0900
      8 C8         -8.1504    1.0122   53.2961 C.ar    1  ZINC000742270208   -0.0200
      9 C9         -7.4936    1.4973   54.4137 C.ar    1  ZINC000742270208   -0.6800
     10 S10        -8.1302    1.1565   56.0209 S.o2    1  ZINC000742270208    2.6600
     11 O11        -8.9893    2.2394   56.3502 O.2     1  ZINC000742270208   -0.9300
     12 O12        -8.5588   -0.1982   56.0039 O.2     1  ZINC000742270208   -0.9000
     13 O13        -6.9607    1.2251   56.9926 O.3     1  ZINC000742270208   -0.6400
     14 C14        -7.3292    1.3943   58.2908 C.ar    1  ZINC000742270208    0.0500
     15 C15        -7.4714    2.6729   58.8119 C.ar    1  ZINC000742270208    0.0900
     16 F16        -7.2438    3.7508   58.0298 F       1  ZINC000742270208   -0.0900
     17 C17        -7.8473    2.8430   60.1345 C.ar    1  ZINC000742270208    0.1100
     18 F18        -7.9859    4.0873   60.6421 F       1  ZINC000742270208   -0.1000
     19 C19        -8.0816    1.7389   60.9360 C.ar    1  ZINC000742270208   -0.1100
     20 C20        -7.9399    0.4628   60.4182 C.ar    1  ZINC000742270208    0.1200
     21 F21        -8.1690   -0.6132   61.2024 F       1  ZINC000742270208   -0.1000
     22 C22        -7.5692    0.2884   59.0947 C.ar    1  ZINC000742270208    0.1200
     23 F23        -7.4315   -0.9570   58.5898 F       1  ZINC000742270208   -0.0900
     24 C24        -6.3392    2.2482   54.2755 C.ar    1  ZINC000742270208   -0.0300
     25 C25        -5.8313    2.5139   53.0213 C.ar    1  ZINC000742270208   -0.0800
     26 H26        -3.1205    3.3312   48.9202 H       1  ZINC000742270208    0.0700
     27 H27        -3.8423    1.7048   48.9664 H       1  ZINC000742270208    0.0600
     28 H28        -4.7415    3.0572   48.2380 H       1  ZINC000742270208    0.0600
     29 H29        -3.9842    2.8048   51.1842 H       1  ZINC000742270208    0.1000
     30 H30        -5.6589    4.8727   49.6888 H       1  ZINC000742270208    0.0700
     31 H31        -5.4133    4.8137   51.4507 H       1  ZINC000742270208    0.0600
     32 H32        -4.0378    5.1467   50.3710 H       1  ZINC000742270208    0.0700
     33 H33        -8.1724    0.8960   51.1637 H       1  ZINC000742270208    0.1500
     34 H34        -9.0506    0.4270   53.4121 H       1  ZINC000742270208    0.1500
     35 H35        -8.3750    1.8731   61.9667 H       1  ZINC000742270208    0.1900
     36 H36        -5.8324    2.6232   55.1523 H       1  ZINC000742270208    0.1500
     37 H37        -4.9304    3.1000   52.9150 H       1  ZINC000742270208    0.1500
@<TRIPOS>BOND
     1     1     2    1
     2     1    26    1
     3     1    27    1
     4     1    28    1
     5     2     3    1
     6     2     4    1
     7     2    29    1
     8     3    30    1
     9     3    31    1
    10     3    32    1
    11     4     5    2
    12     4     6    1
    13     6    25   ar
    14     6     7   ar
    15     7     8   ar
    16     7    33    1
    17     8     9   ar
    18     8    34    1
    19     9    10    1
    20     9    24   ar
    21    10    11    2
    22    10    12    2
    23    10    13    1
    24    13    14    1
    25    14    22   ar
    26    14    15   ar
    27    15    16    1
    28    15    17   ar
    29    17    18    1
    30    17    19   ar
    31    19    20   ar
    32    19    35    1
    33    20    21    1
    34    20    22   ar
    35    22    23    1
    36    24    25   ar
    37    24    36    1
    38    25    37    1
@<TRIPOS>SUBSTRUCTURE
     1 ZINC000742270208        1 TEMP              0 ****  ****    0 ROOT


##########                                Name:    ZINC000364058410
##########                DOCK_Rotatable_Bonds:                   5
##########                         Heavy_Atoms:                  25
##########                    Molecular_Weight:             358.464
##########                DOCK_Rotatable_Bonds:                   5
##########                       Formal_Charge:           0.0100002
##########                     HBond_Acceptors:                   7
##########                        HBond_Donors:                   0
##########                         Heavy_Atoms:                  25
##########                          Grid_Score:          -24.630219
##########                     Grid_vdw_energy:          -23.508625
##########                      Grid_es_energy:           -1.121593
##########           Internal_energy_repulsive:           64.217438

@<TRIPOS>MOLECULE
ZINC000364058410
 47 50 1 0 0
SMALL
USER_CHARGES


@<TRIPOS>ATOM
      1 C1         -8.5778   -4.9455   58.2572 C.3     1  ZINC000364058410   -0.0700
      2 C2         -8.4883   -3.4642   57.9950 C.2     1  ZINC000364058410   -0.2500
      3 C3         -7.6333   -2.6006   58.5901 C.2     1  ZINC000364058410    0.0800
      4 N4         -7.8699   -1.3725   58.0832 N.pl3   1  ZINC000364058410   -0.3600
      5 C5         -7.1683   -0.1395   58.4486 C.3     1  ZINC000364058410    0.1300
      6 C6         -7.6891    1.1104   57.7160 C.3     1  ZINC000364058410    0.1100
      7 N7         -8.6126    1.2709   58.8559 N.am    1  ZINC000364058410   -0.6500
      8 C8         -9.8096    1.8664   59.0252 C.2     1  ZINC000364058410    0.5600
      9 O9        -10.3441    2.4291   58.0932 O.2     1  ZINC000364058410   -0.5000
     10 C10       -10.4839    1.8332   60.3725 C.3     1  ZINC000364058410    0.1400
     11 H11        -9.7429    1.6364   61.1473 H       1  ZINC000364058410    0.0900
     12 C12       -11.1619    3.1806   60.6408 C.3     1  ZINC000364058410   -0.1200
     13 C13       -11.9600    3.0950   61.9438 C.3     1  ZINC000364058410   -0.1200
     14 C14       -13.0467    2.0257   61.8092 C.3     1  ZINC000364058410   -0.1400
     15 C15       -12.3900    0.6654   61.5542 C.3     1  ZINC000364058410    0.1000
     16 N16       -11.5041    0.7761   60.3868 N.am    1  ZINC000364058410   -0.6000
     17 C17       -11.6288   -0.0728   59.3473 C.2     1  ZINC000364058410    0.5900
     18 O18       -10.8890    0.0294   58.3864 O.2     1  ZINC000364058410   -0.4900
     19 C19       -12.6553   -1.1188   59.3742 C.2     1  ZINC000364058410   -0.2600
     20 C20       -13.8361   -1.0884   58.6871 C.2     1  ZINC000364058410   -0.0600
     21 C21       -14.6144   -2.2025   58.8943 C.2     1  ZINC000364058410   -0.1400
     22 C22       -14.0911   -3.1147   59.7219 C.2     1  ZINC000364058410   -0.2400
     23 S23       -12.5611   -2.6170   60.2897 S.3     1  ZINC000364058410    0.2100
     24 C24        -7.6986    0.5172   59.7362 C.3     1  ZINC000364058410    0.0900
     25 N25        -8.9045   -1.4851   57.1456 N.2     1  ZINC000364058410   -0.3000
     26 C26        -9.2703   -2.7401   57.0891 C.2     1  ZINC000364058410    0.0500
     27 H27        -7.9051   -5.4752   57.5827 H       1  ZINC000364058410    0.0600
     28 H28        -8.2925   -5.1498   59.2892 H       1  ZINC000364058410    0.0600
     29 H29        -9.6006   -5.2831   58.0893 H       1  ZINC000364058410    0.0600
     30 H30        -6.8940   -2.8496   59.3370 H       1  ZINC000364058410    0.1700
     31 H31        -6.0837   -0.2445   58.4242 H       1  ZINC000364058410    0.1300
     32 H32        -6.9522    1.9092   57.6317 H       1  ZINC000364058410    0.1100
     33 H33        -8.1894    0.8903   56.7729 H       1  ZINC000364058410    0.0900
     34 H34       -10.4035    3.9583   60.7291 H       1  ZINC000364058410    0.0800
     35 H35       -11.8347    3.4196   59.8172 H       1  ZINC000364058410    0.0800
     36 H36       -11.2908    2.8316   62.7629 H       1  ZINC000364058410    0.0700
     37 H37       -12.4235    4.0598   62.1498 H       1  ZINC000364058410    0.0800
     38 H38       -13.6296    1.9816   62.7292 H       1  ZINC000364058410    0.0800
     39 H39       -13.7016    2.2757   60.9746 H       1  ZINC000364058410    0.0700
     40 H40       -11.8062    0.3722   62.4267 H       1  ZINC000364058410    0.0800
     41 H41       -13.1599   -0.0812   61.3594 H       1  ZINC000364058410    0.0900
     42 H42       -14.1289   -0.2705   58.0455 H       1  ZINC000364058410    0.1500
     43 H43       -15.5779   -2.3319   58.4239 H       1  ZINC000364058410    0.1500
     44 H44       -14.5714   -4.0438   59.9911 H       1  ZINC000364058410    0.1700
     45 H45        -8.2065   -0.1767   60.4061 H       1  ZINC000364058410    0.0900
     46 H46        -6.9646    1.1417   60.2454 H       1  ZINC000364058410    0.1100
     47 H47       -10.0470   -3.1456   56.4578 H       1  ZINC000364058410    0.1800
@<TRIPOS>BOND
     1     1     2    1
     2     1    27    1
     3     1    28    1
     4     1    29    1
     5     2    26    1
     6     2     3    2
     7     3     4    1
     8     3    30    1
     9     4     5    1
    10     4    25    1
    11     5    24    1
    12     5     6    1
    13     5    31    1
    14     6     7    1
    15     6    32    1
    16     6    33    1
    17     7     8   am
    18     7    24    1
    19     8     9    2
    20     8    10    1
    21    10    11    1
    22    10    16    1
    23    10    12    1
    24    12    13    1
    25    12    34    1
    26    12    35    1
    27    13    14    1
    28    13    36    1
    29    13    37    1
    30    14    15    1
    31    14    38    1
    32    14    39    1
    33    15    16    1
    34    15    40    1
    35    15    41    1
    36    16    17   am
    37    17    18    2
    38    17    19    1
    39    19    23    1
    40    19    20    2
    41    20    21    1
    42    20    42    1
    43    21    22    2
    44    21    43    1
    45    22    23    1
    46    22    44    1
    47    24    45    1
    48    24    46    1
    49    25    26    2
    50    26    47    1
@<TRIPOS>SUBSTRUCTURE
     1 ZINC000364058410        1 TEMP              0 ****  ****    0 ROOT


##########                                Name:    ZINC000653668607
##########                DOCK_Rotatable_Bonds:                   5
##########                         Heavy_Atoms:                  28
##########                    Molecular_Weight:             379.459
##########                DOCK_Rotatable_Bonds:                   5
##########                       Formal_Charge:          0.00999918
##########                     HBond_Acceptors:                   6
##########                        HBond_Donors:                   2
##########                         Heavy_Atoms:                  28
##########                          Grid_Score:          -24.540653
##########                     Grid_vdw_energy:          -23.847021
##########                      Grid_es_energy:           -0.693632
##########           Internal_energy_repulsive:           13.191191

@<TRIPOS>MOLECULE
ZINC000653668607
 53 56 1 0 0
SMALL
USER_CHARGES


@<TRIPOS>ATOM
      1 C1         -2.1877    3.9473   55.9232 C.3     1  ZINC000653668607    0.0300
      2 O2         -3.2762    4.4821   55.1674 O.3     1  ZINC000653668607   -0.3200
      3 C3         -3.6679    3.7825   54.0701 C.ar    1  ZINC000653668607    0.1300
      4 C4         -2.7213    3.2004   53.2398 C.ar    1  ZINC000653668607   -0.2000
      5 C5         -3.1294    2.4903   52.1306 C.ar    1  ZINC000653668607   -0.0800
      6 C6         -4.4799    2.3519   51.8365 C.ar    1  ZINC000653668607   -0.1000
      7 C7         -4.8524    1.5501   50.6166 C.3     1  ZINC000653668607   -0.0800
      8 C8         -6.2902    1.8479   50.1964 C.3     1  ZINC000653668607   -0.1200
      9 C9         -7.1958    1.6882   51.4233 C.3     1  ZINC000653668607   -0.1100
     10 C10        -6.9011    2.8318   52.3917 C.3     1  ZINC000653668607   -0.0600
     11 H11        -7.2544    3.7683   51.9602 H       1  ZINC000653668607    0.1000
     12 C12        -7.6215    2.5806   53.6913 C.2     1  ZINC000653668607    0.5200
     13 O13        -8.6327    3.1970   53.9531 O.2     1  ZINC000653668607   -0.5100
     14 N14        -7.1421    1.6711   54.5627 N.am    1  ZINC000653668607   -0.6700
     15 C15        -7.8109    1.4378   55.7693 C.ar    1  ZINC000653668607    0.1500
     16 C16        -7.7313    2.3665   56.7992 C.ar    1  ZINC000653668607   -0.1100
     17 C17        -8.3915    2.1368   57.9912 C.ar    1  ZINC000653668607   -0.0900
     18 C18        -9.1325    0.9837   58.1626 C.ar    1  ZINC000653668607   -0.1200
     19 C19        -9.2157    0.0506   57.1366 C.ar    1  ZINC000653668607    0.1700
     20 N20        -9.9661   -1.1177   57.3112 N.am    1  ZINC000653668607   -0.5800
     21 C21        -9.6716   -1.9964   58.4442 C.3     1  ZINC000653668607    0.1100
     22 C22       -10.9524   -2.7280   58.8594 C.3     1  ZINC000653668607   -0.1500
     23 C23       -11.5125   -3.4630   57.6370 C.3     1  ZINC000653668607    0.1100
     24 N24       -11.7072   -2.5046   56.5479 N.am    1  ZINC000653668607   -0.7400
     25 C25       -10.9444   -1.4065   56.4401 C.2     1  ZINC000653668607    0.7100
     26 O26       -11.1409   -0.6481   55.5103 O.2     1  ZINC000653668607   -0.5800
     27 C27        -8.5592    0.2811   55.9364 C.ar    1  ZINC000653668607   -0.1300
     28 C28        -5.4216    2.9338   52.6564 C.ar    1  ZINC000653668607   -0.0300
     29 C29        -5.0141    3.6422   53.7782 C.ar    1  ZINC000653668607   -0.1500
     30 H30        -2.4515    2.9545   56.2876 H       1  ZINC000653668607    0.0600
     31 H31        -1.3039    3.8786   55.2889 H       1  ZINC000653668607    0.0600
     32 H32        -1.9773    4.6011   56.7697 H       1  ZINC000653668607    0.1000
     33 H33        -1.6693    3.3034   53.4608 H       1  ZINC000653668607    0.1300
     34 H34        -2.3921    2.0375   51.4843 H       1  ZINC000653668607    0.1300
     35 H35        -4.1786    1.8060   49.7989 H       1  ZINC000653668607    0.0800
     36 H36        -4.7564    0.4879   50.8417 H       1  ZINC000653668607    0.0800
     37 H37        -6.3588    2.8685   49.8199 H       1  ZINC000653668607    0.0700
     38 H38        -6.5979    1.1480   49.4195 H       1  ZINC000653668607    0.0800
     39 H39        -8.2408    1.7276   51.1158 H       1  ZINC000653668607    0.0700
     40 H40        -6.9913    0.7340   51.9089 H       1  ZINC000653668607    0.0800
     41 H41        -6.3334    1.1781   54.3533 H       1  ZINC000653668607    0.4100
     42 H42        -7.1525    3.2688   56.6682 H       1  ZINC000653668607    0.1400
     43 H43        -8.3278    2.8603   58.7905 H       1  ZINC000653668607    0.1300
     44 H44        -9.6474    0.8070   59.0954 H       1  ZINC000653668607    0.1200
     45 H45        -8.9143   -2.7243   58.1533 H       1  ZINC000653668607    0.0700
     46 H46        -9.3043   -1.4017   59.2806 H       1  ZINC000653668607    0.0900
     47 H47       -10.7246   -3.4470   59.6463 H       1  ZINC000653668607    0.1000
     48 H48       -11.6855   -2.0065   59.2203 H       1  ZINC000653668607    0.0800
     49 H49       -10.8097   -4.2344   57.3222 H       1  ZINC000653668607    0.0700
     50 H50       -12.4674   -3.9217   57.8937 H       1  ZINC000653668607    0.0900
     51 H51       -12.4045   -2.6649   55.8928 H       1  ZINC000653668607    0.4200
     52 H52        -8.6226   -0.4425   55.1373 H       1  ZINC000653668607    0.1300
     53 H53        -5.7526    4.0918   54.4255 H       1  ZINC000653668607    0.1200
@<TRIPOS>BOND
     1     1     2    1
     2     1    30    1
     3     1    31    1
     4     1    32    1
     5     2     3    1
     6     3    29   ar
     7     3     4   ar
     8     4     5   ar
     9     4    33    1
    10     5     6   ar
    11     5    34    1
    12     6    28   ar
    13     6     7    1
    14     7     8    1
    15     7    35    1
    16     7    36    1
    17     8     9    1
    18     8    37    1
    19     8    38    1
    20     9    10    1
    21     9    39    1
    22     9    40    1
    23    10    11    1
    24    10    12    1
    25    10    28    1
    26    12    13    2
    27    12    14   am
    28    14    15    1
    29    14    41    1
    30    15    27   ar
    31    15    16   ar
    32    16    17   ar
    33    16    42    1
    34    17    18   ar
    35    17    43    1
    36    18    19   ar
    37    18    44    1
    38    19    20    1
    39    19    27   ar
    40    20    25   am
    41    20    21    1
    42    21    22    1
    43    21    45    1
    44    21    46    1
    45    22    23    1
    46    22    47    1
    47    22    48    1
    48    23    24    1
    49    23    49    1
    50    23    50    1
    51    24    25   am
    52    24    51    1
    53    25    26    2
    54    27    52    1
    55    28    29   ar
    56    29    53    1
@<TRIPOS>SUBSTRUCTURE
     1 ZINC000653668607        1 TEMP              0 ****  ****    0 ROOT


##########                                Name:    ZINC001010141213
##########                DOCK_Rotatable_Bonds:                   4
##########                         Heavy_Atoms:                  24
##########                    Molecular_Weight:             330.346
##########                DOCK_Rotatable_Bonds:                   4
##########                       Formal_Charge:          -0.0100003
##########                     HBond_Acceptors:                   9
##########                        HBond_Donors:                   1
##########                         Heavy_Atoms:                  24
##########                          Grid_Score:          -24.468971
##########                     Grid_vdw_energy:          -21.626564
##########                      Grid_es_energy:           -2.842408
##########           Internal_energy_repulsive:           13.836658

@<TRIPOS>MOLECULE
ZINC001010141213
 42 44 1 0 0
SMALL
USER_CHARGES


@<TRIPOS>ATOM
      1 C1        -11.8144    4.2338   60.8286 C.3     1  ZINC001010141213   -0.0800
      2 C2        -10.6629    4.8500   61.5805 C.2     1  ZINC001010141213   -0.1500
      3 C3         -9.6501    4.1887   62.2531 C.2     1  ZINC001010141213   -0.0400
      4 C4         -9.4783    2.7327   62.3804 C.2     1  ZINC001010141213    0.6000
      5 O5         -9.9372    2.1480   63.3431 O.2     1  ZINC001010141213   -0.5100
      6 N6         -8.8124    2.0471   61.4301 N.am    1  ZINC001010141213   -0.6100
      7 C7         -8.6385    0.5921   61.5410 C.3     1  ZINC001010141213    0.0900
      8 C8         -9.1848   -0.0652   60.2674 C.3     1  ZINC001010141213    0.0700
      9 N9         -8.6201    0.6288   59.1015 N.am    1  ZINC001010141213   -0.6000
     10 C10        -7.9551   -0.0569   58.1507 C.2     1  ZINC001010141213    0.5900
     11 O11        -7.4924    0.5281   57.1909 O.2     1  ZINC001010141213   -0.5200
     12 C12        -7.7884   -1.5211   58.2752 C.2     1  ZINC001010141213    0.0300
     13 N13        -6.7151   -2.0112   58.8536 N.2     1  ZINC001010141213   -0.1800
     14 N14        -6.5238   -3.2738   58.9860 N.am    1  ZINC001010141213   -0.4400
     15 C15        -7.4155   -4.1771   58.5380 C.2     1  ZINC001010141213    0.4800
     16 O16        -7.2049   -5.3703   58.6793 O.2     1  ZINC001010141213   -0.5100
     17 C17        -8.5973   -3.7339   57.9033 C.2     1  ZINC001010141213   -0.1800
     18 C18        -8.7882   -2.3901   57.7757 C.2     1  ZINC001010141213   -0.0400
     19 C19        -8.7940    2.0839   58.9906 C.3     1  ZINC001010141213    0.1000
     20 C20        -8.2526    2.7404   60.2614 C.3     1  ZINC001010141213    0.1000
     21 N21        -8.8419    5.1584   62.7752 N.pl3   1  ZINC001010141213   -0.2700
     22 C22        -7.6358    4.9146   63.5701 C.3     1  ZINC001010141213    0.0900
     23 N23        -9.3005    6.3167   62.4621 N.2     1  ZINC001010141213   -0.2800
     24 C24       -10.3876    6.2098   61.7414 C.2     1  ZINC001010141213    0.0100
     25 H25       -11.5255    4.0722   59.7901 H       1  ZINC001010141213    0.0700
     26 H26       -12.0773    3.2795   61.2851 H       1  ZINC001010141213    0.0600
     27 H27       -12.6734    4.9037   60.8668 H       1  ZINC001010141213    0.0700
     28 H28        -7.5795    0.3573   61.6484 H       1  ZINC001010141213    0.0800
     29 H29        -9.1874    0.2230   62.4073 H       1  ZINC001010141213    0.1000
     30 H30        -8.8940   -1.1155   60.2441 H       1  ZINC001010141213    0.1400
     31 H31       -10.2716    0.0164   60.2508 H       1  ZINC001010141213    0.0800
     32 H32        -5.7144   -3.5853   59.4206 H       1  ZINC001010141213    0.4500
     33 H33        -9.3289   -4.4377   57.5348 H       1  ZINC001010141213    0.1700
     34 H34        -9.6748   -1.9991   57.2988 H       1  ZINC001010141213    0.1700
     35 H35        -8.2452    2.4530   58.1242 H       1  ZINC001010141213    0.1100
     36 H36        -9.8530    2.3187   58.8831 H       1  ZINC001010141213    0.0800
     37 H37        -8.5441    3.7905   60.2833 H       1  ZINC001010141213    0.1100
     38 H38        -7.1658    2.6593   60.2805 H       1  ZINC001010141213    0.0800
     39 H39        -6.7616    4.9328   62.9193 H       1  ZINC001010141213    0.0900
     40 H40        -7.5390    5.6897   64.3304 H       1  ZINC001010141213    0.1000
     41 H41        -7.7095    3.9398   64.0524 H       1  ZINC001010141213    0.0900
     42 H42       -10.9720    7.0279   61.3471 H       1  ZINC001010141213    0.1900
@<TRIPOS>BOND
     1     1     2    1
     2     1    25    1
     3     1    26    1
     4     1    27    1
     5     2    24    1
     6     2     3    2
     7     3     4    1
     8     3    21    1
     9     4     5    2
    10     4     6   am
    11     6    20    1
    12     6     7    1
    13     7     8    1
    14     7    28    1
    15     7    29    1
    16     8     9    1
    17     8    30    1
    18     8    31    1
    19     9    10   am
    20     9    19    1
    21    10    11    2
    22    10    12    1
    23    12    18    1
    24    12    13    2
    25    13    14    1
    26    14    15   am
    27    14    32    1
    28    15    16    2
    29    15    17    1
    30    17    18    2
    31    17    33    1
    32    18    34    1
    33    19    20    1
    34    19    35    1
    35    19    36    1
    36    20    37    1
    37    20    38    1
    38    21    22    1
    39    21    23    1
    40    22    39    1
    41    22    40    1
    42    22    41    1
    43    23    24    2
    44    24    42    1
@<TRIPOS>SUBSTRUCTURE
     1 ZINC001010141213        1 TEMP              0 ****  ****    0 ROOT


##########                                Name:    ZINC000431691749
##########                DOCK_Rotatable_Bonds:                   4
##########                         Heavy_Atoms:                  24
##########                    Molecular_Weight:             328.454
##########                DOCK_Rotatable_Bonds:                   4
##########                       Formal_Charge:         -0.00999957
##########                     HBond_Acceptors:                   4
##########                        HBond_Donors:                   0
##########                         Heavy_Atoms:                  24
##########                          Grid_Score:          -24.399052
##########                     Grid_vdw_energy:          -23.920670
##########                      Grid_es_energy:           -0.478382
##########           Internal_energy_repulsive:          100.896156

@<TRIPOS>MOLECULE
ZINC000431691749
 52 54 1 0 0
SMALL
USER_CHARGES


@<TRIPOS>ATOM
      1 C1         -8.7166    1.4215   61.7249 C.3     1  ZINC000431691749   -0.1200
      2 C2         -8.5507    0.7393   60.3914 C.ar    1  ZINC000431691749   -0.0800
      3 C3         -7.6211    1.2118   59.4843 C.ar    1  ZINC000431691749   -0.1200
      4 C4         -7.4689    0.5860   58.2610 C.ar    1  ZINC000431691749   -0.1100
      5 C5         -8.2460   -0.5125   57.9452 C.ar    1  ZINC000431691749   -0.1100
      6 C6         -9.1753   -0.9858   58.8529 C.ar    1  ZINC000431691749   -0.0800
      7 C7        -10.0229   -2.1833   58.5085 C.3     1  ZINC000431691749    0.2000
      8 H8        -10.4496   -2.6007   59.4205 H       1  ZINC000431691749    0.1100
      9 N9        -11.1026   -1.7742   57.6069 N.am    1  ZINC000431691749   -0.5700
     10 C10       -11.0165   -0.7454   56.7406 C.2     1  ZINC000431691749    0.5200
     11 O11       -10.0671   -0.0117   56.5670 O.2     1  ZINC000431691749   -0.4400
     12 C12       -12.3534   -0.6970   56.0277 C.3     1  ZINC000431691749    0.0900
     13 H13       -12.8537    0.2531   56.2151 H       1  ZINC000431691749    0.1300
     14 C14       -12.1705   -0.9201   54.5251 C.3     1  ZINC000431691749   -0.1500
     15 N15       -13.1084   -1.8084   56.6318 N.am    1  ZINC000431691749   -0.6000
     16 C16       -14.4770   -2.2163   56.3054 C.3     1  ZINC000431691749    0.1500
     17 C17       -15.3947   -2.3328   57.5339 C.3     1  ZINC000431691749   -0.1600
     18 C18       -15.7310   -0.8468   57.3255 C.3     1  ZINC000431691749   -0.1400
     19 C19       -15.3727   -1.0544   55.8445 C.3     1  ZINC000431691749   -0.1500
     20 C20       -12.2939   -2.3792   57.5376 C.2     1  ZINC000431691749    0.7000
     21 O21       -12.6077   -3.3334   58.2219 O.2     1  ZINC000431691749   -0.5300
     22 C22        -9.1568   -3.2403   57.8206 C.3     1  ZINC000431691749   -0.0700
     23 C23        -9.6280   -4.6353   58.2363 C.3     1  ZINC000431691749   -0.1400
     24 C24        -9.2800   -3.0916   56.3028 C.3     1  ZINC000431691749   -0.1400
     25 C25        -7.6960   -3.0511   58.2346 C.3     1  ZINC000431691749   -0.1600
     26 C26        -9.3244   -0.3627   60.0776 C.ar    1  ZINC000431691749   -0.1100
     27 H27        -8.0416    0.9687   62.4511 H       1  ZINC000431691749    0.0700
     28 H28        -8.4825    2.4811   61.6225 H       1  ZINC000431691749    0.0700
     29 H29        -9.7458    1.3080   62.0655 H       1  ZINC000431691749    0.0700
     30 H30        -7.0138    2.0702   59.7310 H       1  ZINC000431691749    0.1200
     31 H31        -6.7429    0.9557   57.5519 H       1  ZINC000431691749    0.1200
     32 H32        -8.1276   -1.0010   56.9893 H       1  ZINC000431691749    0.1100
     33 H33       -11.6915   -1.8846   54.3566 H       1  ZINC000431691749    0.0700
     34 H34       -13.1440   -0.9074   54.0348 H       1  ZINC000431691749    0.0800
     35 H35       -11.5461   -0.1272   54.1134 H       1  ZINC000431691749    0.0800
     36 H36       -14.5144   -3.0842   55.6469 H       1  ZINC000431691749    0.1000
     37 H37       -16.2446   -2.9982   57.3825 H       1  ZINC000431691749    0.0900
     38 H38       -14.8588   -2.5332   58.4616 H       1  ZINC000431691749    0.0700
     39 H39       -16.7818   -0.6095   57.4914 H       1  ZINC000431691749    0.0700
     40 H40       -15.0555   -0.1689   57.8473 H       1  ZINC000431691749    0.0800
     41 H41       -14.8192   -0.2228   55.4084 H       1  ZINC000431691749    0.1000
     42 H42       -16.2167   -1.3703   55.2312 H       1  ZINC000431691749    0.0900
     43 H43       -10.6687   -4.7701   57.9413 H       1  ZINC000431691749    0.0600
     44 H44        -9.0110   -5.3883   57.7461 H       1  ZINC000431691749    0.0600
     45 H45        -9.5402   -4.7413   59.3176 H       1  ZINC000431691749    0.0600
     46 H46        -8.9443   -2.0978   56.0066 H       1  ZINC000431691749    0.0500
     47 H47        -8.6631   -3.8447   55.8126 H       1  ZINC000431691749    0.0600
     48 H48       -10.3207   -3.2264   56.0079 H       1  ZINC000431691749    0.0500
     49 H49        -7.6544   -2.5482   59.2007 H       1  ZINC000431691749    0.0700
     50 H50        -7.2109   -4.0242   58.3103 H       1  ZINC000431691749    0.0400
     51 H51        -7.1822   -2.4460   57.4876 H       1  ZINC000431691749    0.1000
     52 H52       -10.0503   -0.7325   60.7868 H       1  ZINC000431691749    0.1300
@<TRIPOS>BOND
     1     1     2    1
     2     1    27    1
     3     1    28    1
     4     1    29    1
     5     2    26   ar
     6     2     3   ar
     7     3     4   ar
     8     3    30    1
     9     4     5   ar
    10     4    31    1
    11     5     6   ar
    12     5    32    1
    13     6     7    1
    14     6    26   ar
    15     7     8    1
    16     7     9    1
    17     7    22    1
    18     9    20   am
    19     9    10   am
    20    10    11    2
    21    10    12    1
    22    12    13    1
    23    12    14    1
    24    12    15    1
    25    14    33    1
    26    14    34    1
    27    14    35    1
    28    15    16    1
    29    15    20   am
    30    16    19    1
    31    16    17    1
    32    16    36    1
    33    17    18    1
    34    17    37    1
    35    17    38    1
    36    18    19    1
    37    18    39    1
    38    18    40    1
    39    19    41    1
    40    19    42    1
    41    20    21    2
    42    22    23    1
    43    22    24    1
    44    22    25    1
    45    23    43    1
    46    23    44    1
    47    23    45    1
    48    24    46    1
    49    24    47    1
    50    24    48    1
    51    25    49    1
    52    25    50    1
    53    25    51    1
    54    26    52    1
@<TRIPOS>SUBSTRUCTURE
     1 ZINC000431691749        1 TEMP              0 ****  ****    0 ROOT


##########                                Name:    ZINC000899027326
##########                DOCK_Rotatable_Bonds:                   5
##########                         Heavy_Atoms:                  22
##########                    Molecular_Weight:             346.169
##########                DOCK_Rotatable_Bonds:                   5
##########                       Formal_Charge:           0.0300005
##########                     HBond_Acceptors:                   9
##########                        HBond_Donors:                   1
##########                         Heavy_Atoms:                  22
##########                          Grid_Score:          -24.030464
##########                     Grid_vdw_energy:          -22.493126
##########                      Grid_es_energy:           -1.537338
##########           Internal_energy_repulsive:            6.484663

@<TRIPOS>MOLECULE
ZINC000899027326
 35 36 1 0 0
SMALL
USER_CHARGES


@<TRIPOS>ATOM
      1 C1         -8.0714   -0.1013   57.6981 C.3     1  ZINC000899027326   -0.1500
      2 C2         -8.6549   -1.0045   58.7866 C.3     1  ZINC000899027326    0.1100
      3 H3         -8.3336   -0.6706   59.7733 H       1  ZINC000899027326    0.1400
      4 C4        -10.1679   -1.0347   58.7002 C.2     1  ZINC000899027326    0.5300
      5 O5        -10.9273   -0.0979   58.8249 O.2     1  ZINC000899027326   -0.4500
      6 N6        -10.4933   -2.3194   58.4553 N.am    1  ZINC000899027326   -0.3700
      7 N7        -11.8064   -2.7832   58.3021 N.am    1  ZINC000899027326   -0.5000
      8 C8        -12.5866   -2.9679   59.3855 C.2     1  ZINC000899027326    0.5200
      9 O9        -12.1523   -2.7314   60.4929 O.2     1  ZINC000899027326   -0.4800
     10 C10       -13.9984   -3.4684   59.2208 C.3     1  ZINC000899027326    0.0500
     11 O11       -14.8822   -2.3570   59.0605 O.3     1  ZINC000899027326   -0.2700
     12 C12       -14.5652   -1.4500   58.0989 C.ar    1  ZINC000899027326    0.1400
     13 C13       -14.5012   -1.8407   56.7700 C.ar    1  ZINC000899027326   -0.1900
     14 C14       -14.1788   -0.9173   55.7937 C.ar    1  ZINC000899027326   -0.0600
     15 C15       -13.9196    0.3964   56.1409 C.ar    1  ZINC000899027326   -0.0600
     16 Cl16      -13.5154    1.5541   54.9121 Cl      1  ZINC000899027326   -0.0500
     17 C17       -13.9827    0.7892   57.4664 C.ar    1  ZINC000899027326   -0.0600
     18 C18       -14.3104   -0.1298   58.4453 C.ar    1  ZINC000899027326   -0.0500
     19 Cl19      -14.3896    0.3629   60.1081 Cl      1  ZINC000899027326   -0.0300
     20 C20        -9.4074   -3.0969   58.3758 C.2     1  ZINC000899027326    0.7000
     21 O21        -9.4470   -4.2927   58.1620 O.2     1  ZINC000899027326   -0.5200
     22 N22        -8.2637   -2.4068   58.5612 N.am    1  ZINC000899027326   -0.6200
     23 C23        -6.9020   -2.9467   58.5383 C.3     1  ZINC000899027326    0.1200
     24 H24        -8.4131   -0.4427   56.7210 H       1  ZINC000899027326    0.0700
     25 H25        -8.4026    0.9243   57.8610 H       1  ZINC000899027326    0.0900
     26 H26        -6.9829   -0.1420   57.7370 H       1  ZINC000899027326    0.0900
     27 H27       -12.1541   -2.9712   57.4163 H       1  ZINC000899027326    0.4300
     28 H28       -14.0566   -4.1088   58.3406 H       1  ZINC000899027326    0.1100
     29 H29       -14.2874   -4.0380   60.1041 H       1  ZINC000899027326    0.1100
     30 H30       -14.7031   -2.8662   56.4981 H       1  ZINC000899027326    0.1500
     31 H31       -14.1286   -1.2217   54.7588 H       1  ZINC000899027326    0.1500
     32 H32       -13.7801    1.8154   57.7355 H       1  ZINC000899027326    0.1500
     33 H33        -6.9394   -4.0187   58.3450 H       1  ZINC000899027326    0.0900
     34 H34        -6.3295   -2.4554   57.7516 H       1  ZINC000899027326    0.0700
     35 H35        -6.4239   -2.7677   59.5014 H       1  ZINC000899027326    0.0700
@<TRIPOS>BOND
     1     1     2    1
     2     1    24    1
     3     1    25    1
     4     1    26    1
     5     2     3    1
     6     2    22    1
     7     2     4    1
     8     4     5    2
     9     4     6   am
    10     6     7    1
    11     6    20   am
    12     7     8   am
    13     7    27    1
    14     8     9    2
    15     8    10    1
    16    10    11    1
    17    10    28    1
    18    10    29    1
    19    11    12    1
    20    12    18   ar
    21    12    13   ar
    22    13    14   ar
    23    13    30    1
    24    14    15   ar
    25    14    31    1
    26    15    16    1
    27    15    17   ar
    28    17    18   ar
    29    17    32    1
    30    18    19    1
    31    20    21    2
    32    20    22   am
    33    22    23    1
    34    23    33    1
    35    23    34    1
    36    23    35    1
@<TRIPOS>SUBSTRUCTURE
     1 ZINC000899027326        1 TEMP              0 ****  ****    0 ROOT


##########                                Name:    ZINC000931749147
##########                DOCK_Rotatable_Bonds:                   5
##########                         Heavy_Atoms:                  25
##########                    Molecular_Weight:             354.397
##########                DOCK_Rotatable_Bonds:                   5
##########                       Formal_Charge:        -4.76837e-07
##########                     HBond_Acceptors:                   7
##########                        HBond_Donors:                   1
##########                         Heavy_Atoms:                  25
##########                          Grid_Score:          -23.978796
##########                     Grid_vdw_energy:          -24.273941
##########                      Grid_es_energy:            0.295145
##########           Internal_energy_repulsive:           84.605392

@<TRIPOS>MOLECULE
ZINC000931749147
 49 51 1 0 0
SMALL
USER_CHARGES


@<TRIPOS>ATOM
      1 C1        -15.6691   -0.6992   54.6052 C.3     1  ZINC000931749147   -0.1100
      2 C2        -14.3297   -0.4553   53.9591 C.ar    1  ZINC000931749147   -0.1300
      3 C3        -13.1911   -1.0633   54.4697 C.ar    1  ZINC000931749147    0.1800
      4 N4        -13.2860   -1.9043   55.5855 N.am    1  ZINC000931749147   -0.6800
      5 C5        -12.5051   -1.6861   56.6622 C.2     1  ZINC000931749147    0.7100
      6 O6        -11.7183   -0.7590   56.6647 O.2     1  ZINC000931749147   -0.5500
      7 N7        -12.5964   -2.4954   57.7360 N.am    1  ZINC000931749147   -0.6200
      8 C8        -13.5410   -3.6234   57.7562 C.3     1  ZINC000931749147    0.0700
      9 C9        -14.3570   -3.5477   59.0518 C.3     1  ZINC000931749147    0.0500
     10 O10       -13.4652   -3.4464   60.1645 O.3     1  ZINC000931749147   -0.3700
     11 C11       -12.6570   -2.2670   60.1614 C.3     1  ZINC000931749147    0.0500
     12 C12       -11.7500   -2.2807   58.9205 C.3     1  ZINC000931749147    0.1300
     13 H13       -11.0204   -3.0857   59.0079 H       1  ZINC000931749147    0.0900
     14 C14       -11.0247   -0.9391   58.7975 C.3     1  ZINC000931749147   -0.1100
     15 C15       -10.3099   -0.6235   60.1130 C.3     1  ZINC000931749147   -0.1000
     16 C16        -8.9276   -0.0337   59.8163 C.3     1  ZINC000931749147   -0.1500
     17 C17        -8.2521    0.3517   61.1349 C.3     1  ZINC000931749147    0.0600
     18 O18        -9.0798    1.2796   61.8393 O.3     1  ZINC000931749147   -0.3800
     19 C19       -10.3679    0.7666   62.1852 C.3     1  ZINC000931749147    0.0600
     20 C20       -11.1285    0.3979   60.9087 C.3     1  ZINC000931749147   -0.1500
     21 C21       -11.9580   -0.8371   53.8726 C.ar    1  ZINC000931749147   -0.1200
     22 C22       -11.8653   -0.0079   52.7719 C.ar    1  ZINC000931749147   -0.1100
     23 C23       -13.0007    0.5984   52.2626 C.ar    1  ZINC000931749147    0.0500
     24 F24       -12.9077    1.4090   51.1858 F       1  ZINC000931749147   -0.1300
     25 C25       -14.2345    0.3700   52.8531 C.ar    1  ZINC000931749147    0.0900
     26 F26       -15.3418    0.9624   52.3550 F       1  ZINC000931749147   -0.1200
     27 H27       -16.1422   -1.5664   54.1447 H       1  ZINC000931749147    0.0800
     28 H28       -15.5304   -0.8838   55.6705 H       1  ZINC000931749147    0.0700
     29 H29       -16.3035    0.1765   54.4679 H       1  ZINC000931749147    0.0800
     30 H30       -13.9136   -2.6439   55.5836 H       1  ZINC000931749147    0.4100
     31 H31       -14.2090   -3.5583   56.8974 H       1  ZINC000931749147    0.0800
     32 H32       -12.9907   -4.5637   57.7235 H       1  ZINC000931749147    0.0900
     33 H33       -15.0047   -2.6714   59.0233 H       1  ZINC000931749147    0.0600
     34 H34       -14.9643   -4.4471   59.1527 H       1  ZINC000931749147    0.1100
     35 H35       -13.2985   -1.3862   60.1370 H       1  ZINC000931749147    0.0600
     36 H36       -12.0413   -2.2452   61.0606 H       1  ZINC000931749147    0.1100
     37 H37       -10.2939   -0.9938   57.9908 H       1  ZINC000931749147    0.1100
     38 H38       -11.7483   -0.1535   58.5797 H       1  ZINC000931749147    0.0700
     39 H39       -10.2002   -1.5374   60.6968 H       1  ZINC000931749147    0.0700
     40 H40        -8.3190   -0.7748   59.2983 H       1  ZINC000931749147    0.0700
     41 H41        -9.0362    0.8519   59.1901 H       1  ZINC000931749147    0.0700
     42 H42        -8.1073   -0.5409   61.7436 H       1  ZINC000931749147    0.0500
     43 H43        -7.2857    0.8113   60.9276 H       1  ZINC000931749147    0.0900
     44 H44       -10.2507   -0.1205   62.8076 H       1  ZINC000931749147    0.0500
     45 H45       -10.9258    1.5251   62.7344 H       1  ZINC000931749147    0.0900
     46 H46       -11.2814    1.2922   60.3046 H       1  ZINC000931749147    0.0700
     47 H47       -12.0938   -0.0346   61.1719 H       1  ZINC000931749147    0.0700
     48 H48       -11.0713   -1.3093   54.2692 H       1  ZINC000931749147    0.1800
     49 H49       -10.9059    0.1679   52.3080 H       1  ZINC000931749147    0.1500
@<TRIPOS>BOND
     1     1     2    1
     2     1    27    1
     3     1    28    1
     4     1    29    1
     5     2    25   ar
     6     2     3   ar
     7     3     4    1
     8     3    21   ar
     9     4     5   am
    10     4    30    1
    11     5     6    2
    12     5     7   am
    13     7    12    1
    14     7     8    1
    15     8     9    1
    16     8    31    1
    17     8    32    1
    18     9    10    1
    19     9    33    1
    20     9    34    1
    21    10    11    1
    22    11    12    1
    23    11    35    1
    24    11    36    1
    25    12    13    1
    26    12    14    1
    27    14    15    1
    28    14    37    1
    29    14    38    1
    30    15    20    1
    31    15    16    1
    32    15    39    1
    33    16    17    1
    34    16    40    1
    35    16    41    1
    36    17    18    1
    37    17    42    1
    38    17    43    1
    39    18    19    1
    40    19    20    1
    41    19    44    1
    42    19    45    1
    43    20    46    1
    44    20    47    1
    45    21    22   ar
    46    21    48    1
    47    22    23   ar
    48    22    49    1
    49    23    24    1
    50    23    25   ar
    51    25    26    1
@<TRIPOS>SUBSTRUCTURE
     1 ZINC000931749147        1 TEMP              0 ****  ****    0 ROOT


##########                                Name:    ZINC000820901229
##########                DOCK_Rotatable_Bonds:                   3
##########                         Heavy_Atoms:                  18
##########                    Molecular_Weight:             331.233
##########                DOCK_Rotatable_Bonds:                   3
##########                       Formal_Charge:           0.0099999
##########                     HBond_Acceptors:                   5
##########                        HBond_Donors:                   1
##########                         Heavy_Atoms:                  18
##########                          Grid_Score:          -23.742826
##########                     Grid_vdw_energy:          -23.869610
##########                      Grid_es_energy:            0.126783
##########           Internal_energy_repulsive:            3.435629

@<TRIPOS>MOLECULE
ZINC000820901229
 33 35 1 0 0
SMALL
USER_CHARGES


@<TRIPOS>ATOM
      1 O1         -4.3328    4.0448   49.2149 O.2     1  ZINC000820901229   -0.5300
      2 C2         -4.6244    2.8737   49.3656 C.2     1  ZINC000820901229    0.6000
      3 N3         -3.7613    1.9102   48.9873 N.am    1  ZINC000820901229   -0.7100
      4 C4         -2.4743    2.2734   48.3890 C.3     1  ZINC000820901229    0.1600
      5 H5         -2.3451    3.3554   48.4161 H       1  ZINC000820901229    0.1000
      6 C6         -2.4140    1.7756   46.9360 C.3     1  ZINC000820901229   -0.1300
      7 C7         -1.0622    2.0790   46.2969 C.3     1  ZINC000820901229   -0.1100
      8 C8          0.0949    1.5114   47.1355 C.3     1  ZINC000820901229   -0.1100
      9 C9         -0.0158    2.1110   48.5221 C.3     1  ZINC000820901229    0.0800
     10 H10        -0.0404    3.1985   48.4509 H       1  ZINC000820901229    0.0700
     11 O11         0.9492    1.7159   49.4905 O.3     1  ZINC000820901229   -0.3700
     12 C12         0.3701    2.0702   50.7723 C.3     1  ZINC000820901229    0.0500
     13 C13        -1.1707    2.0420   50.5994 C.3     1  ZINC000820901229   -0.1500
     14 C14        -1.3438    1.5990   49.1461 C.3     1  ZINC000820901229   -0.1400
     15 H15        -1.4200    0.5138   49.0780 H       1  ZINC000820901229    0.0900
     16 C16        -5.9180    2.5085   49.9670 C.2     1  ZINC000820901229    0.0100
     17 C17        -6.1643    1.2953   50.5098 C.2     1  ZINC000820901229   -0.2200
     18 S18        -7.7696    1.2682   51.0965 S.3     1  ZINC000820901229    0.3100
     19 C19        -8.0203    2.8777   50.5837 C.2     1  ZINC000820901229   -0.0100
     20 Br20       -9.6337    3.8393   50.8037 Br      1  ZINC000820901229    0.0700
     21 N21        -6.9561    3.3474   50.0321 N.2     1  ZINC000820901229   -0.4100
     22 H22        -3.9922    0.9762   49.1113 H       1  ZINC000820901229    0.4100
     23 H23        -2.5813    0.6986   46.9211 H       1  ZINC000820901229    0.0700
     24 H24        -3.1987    2.2648   46.3590 H       1  ZINC000820901229    0.0700
     25 H25        -1.0313    1.6367   45.3012 H       1  ZINC000820901229    0.0800
     26 H26        -0.9432    3.1589   46.2100 H       1  ZINC000820901229    0.0700
     27 H27         0.0131    0.4259   47.1935 H       1  ZINC000820901229    0.0700
     28 H28         1.0488    1.7887   46.6868 H       1  ZINC000820901229    0.0800
     29 H29         0.6721    1.3460   51.5289 H       1  ZINC000820901229    0.0900
     30 H30         0.6929    3.0701   51.0619 H       1  ZINC000820901229    0.0600
     31 H31        -1.6211    1.3165   51.2769 H       1  ZINC000820901229    0.0800
     32 H32        -1.5944    3.0336   50.7582 H       1  ZINC000820901229    0.0800
     33 H33        -5.4619    0.4767   50.5634 H       1  ZINC000820901229    0.2000
@<TRIPOS>BOND
     1     1     2    2
     2     2     3   am
     3     2    16    1
     4     3     4    1
     5     3    22    1
     6     4     5    1
     7     4    14    1
     8     4     6    1
     9     6     7    1
    10     6    23    1
    11     6    24    1
    12     7     8    1
    13     7    25    1
    14     7    26    1
    15     8     9    1
    16     8    27    1
    17     8    28    1
    18     9    10    1
    19     9    14    1
    20     9    11    1
    21    11    12    1
    22    12    13    1
    23    12    29    1
    24    12    30    1
    25    13    14    1
    26    13    31    1
    27    13    32    1
    28    14    15    1
    29    16    21    1
    30    16    17    2
    31    17    18    1
    32    17    33    1
    33    18    19    1
    34    19    20    1
    35    19    21    2
@<TRIPOS>SUBSTRUCTURE
     1 ZINC000820901229        1 TEMP              0 ****  ****    0 ROOT


##########                                Name:    ZINC000828026236
##########                DOCK_Rotatable_Bonds:                   1
##########                         Heavy_Atoms:                  19
##########                    Molecular_Weight:             383.045
##########                DOCK_Rotatable_Bonds:                   1
##########                       Formal_Charge:                   0
##########                     HBond_Acceptors:                   5
##########                        HBond_Donors:                   0
##########                         Heavy_Atoms:                  19
##########                          Grid_Score:          -23.286343
##########                     Grid_vdw_energy:          -23.339994
##########                      Grid_es_energy:            0.053652
##########           Internal_energy_repulsive:            2.512685

@<TRIPOS>MOLECULE
ZINC000828026236
 28 30 1 0 0
SMALL
USER_CHARGES


@<TRIPOS>ATOM
      1 N1         -9.4624   -0.2783   52.5115 N.1     1  ZINC000828026236   -0.3800
      2 C2        -10.4628   -0.4145   53.0321 C.1     1  ZINC000828026236    0.2600
      3 C3        -11.7239   -0.5861   53.6885 C.ar    1  ZINC000828026236   -0.0500
      4 C4        -12.9130   -0.2030   53.0583 C.ar    1  ZINC000828026236    0.0100
      5 C5        -14.1063   -0.3900   53.7358 C.ar    1  ZINC000828026236   -0.1600
      6 Br6       -15.7451    0.1081   52.9344 Br      1  ZINC000828026236   -0.0100
      7 C7        -14.0902   -0.9445   55.0034 C.ar    1  ZINC000828026236    0.1800
      8 N8        -12.9579   -1.2992   55.5800 N.ar    1  ZINC000828026236   -0.5000
      9 C9        -11.7904   -1.1481   54.9754 C.ar    1  ZINC000828026236    0.3600
     10 N10       -10.6270   -1.5344   55.6187 N.3     1  ZINC000828026236   -0.4900
     11 C11       -10.8543   -2.7268   56.4473 C.3     1  ZINC000828026236    0.0500
     12 C12        -9.5073   -3.3454   56.8425 C.3     1  ZINC000828026236    0.1100
     13 N13        -8.6534   -2.2814   57.3770 N.pl3   1  ZINC000828026236   -0.4400
     14 C14        -7.5167   -2.3940   58.1160 C.2     1  ZINC000828026236   -0.0300
     15 Br15       -6.6886   -3.9985   58.6774 Br      1  ZINC000828026236    0.0200
     16 C16        -7.0950   -1.1367   58.3703 C.2     1  ZINC000828026236    0.0300
     17 N17        -7.9593   -0.2825   57.7962 N.2     1  ZINC000828026236   -0.4700
     18 C18        -8.8940   -0.9576   57.1986 C.2     1  ZINC000828026236    0.2300
     19 C19       -10.0736   -0.4279   56.4185 C.3     1  ZINC000828026236    0.1500
     20 H20       -12.9005    0.2283   52.0682 H       1  ZINC000828026236    0.1600
     21 H21       -15.0216   -1.0895   55.5305 H       1  ZINC000828026236    0.1800
     22 H22       -11.4018   -2.4446   57.3467 H       1  ZINC000828026236    0.0700
     23 H23       -11.4363   -3.4553   55.8828 H       1  ZINC000828026236    0.1100
     24 H24        -9.6629   -4.1094   57.6042 H       1  ZINC000828026236    0.1100
     25 H25        -9.0356   -3.7900   55.9662 H       1  ZINC000828026236    0.1000
     26 H26        -6.2165   -0.8647   58.9367 H       1  ZINC000828026236    0.1800
     27 H27        -9.7474    0.3760   55.7586 H       1  ZINC000828026236    0.1200
     28 H28       -10.8325   -0.0553   57.1063 H       1  ZINC000828026236    0.1000
@<TRIPOS>BOND
     1     1     2    3
     2     2     3    1
     3     3     9   ar
     4     3     4   ar
     5     4     5   ar
     6     4    20    1
     7     5     6    1
     8     5     7   ar
     9     7     8   ar
    10     7    21    1
    11     8     9   ar
    12     9    10    1
    13    10    19    1
    14    10    11    1
    15    11    12    1
    16    11    22    1
    17    11    23    1
    18    12    13    1
    19    12    24    1
    20    12    25    1
    21    13    18    1
    22    13    14    1
    23    14    15    1
    24    14    16    2
    25    16    17    1
    26    16    26    1
    27    17    18    2
    28    18    19    1
    29    19    27    1
    30    19    28    1
@<TRIPOS>SUBSTRUCTURE
     1 ZINC000828026236        1 TEMP              0 ****  ****    0 ROOT


##########                                Name:    ZINC001211202056
##########                DOCK_Rotatable_Bonds:                   4
##########                         Heavy_Atoms:                  23
##########                    Molecular_Weight:             386.181
##########                DOCK_Rotatable_Bonds:                   4
##########                       Formal_Charge:           0.0199999
##########                     HBond_Acceptors:                  11
##########                        HBond_Donors:                   3
##########                         Heavy_Atoms:                  23
##########                          Grid_Score:          -22.999445
##########                     Grid_vdw_energy:          -21.919586
##########                      Grid_es_energy:           -1.079859
##########           Internal_energy_repulsive:            5.955027

@<TRIPOS>MOLECULE
ZINC001211202056
 31 32 1 0 0
SMALL
USER_CHARGES


@<TRIPOS>ATOM
      1 N1         -4.8623    2.1071   53.9511 N.pl3   1  ZINC001211202056   -0.8500
      2 C2         -5.5670    2.2821   55.1452 C.ar    1  ZINC001211202056    0.2900
      3 C3         -6.8160    1.6982   55.3078 C.ar    1  ZINC001211202056   -0.2000
      4 C4         -7.5103    1.8732   56.4894 C.ar    1  ZINC001211202056    0.0400
      5 C5         -6.9633    2.6290   57.5095 C.ar    1  ZINC001211202056   -0.7300
      6 S6         -7.8526    2.8491   59.0146 S.o2    1  ZINC001211202056    2.6900
      7 O7         -7.2105    3.9099   59.7086 O.2     1  ZINC001211202056   -0.9400
      8 O8         -9.2303    2.8693   58.6672 O.2     1  ZINC001211202056   -0.9300
      9 N9         -7.6198    1.4859   59.9254 N.am    1  ZINC001211202056   -1.0500
     10 C10        -8.0225    0.2404   59.4351 C.ar    1  ZINC001211202056    0.1600
     11 C11        -7.1564   -0.5283   58.6629 C.ar    1  ZINC001211202056   -0.1200
     12 C12        -7.6010   -1.7566   58.1998 C.ar    1  ZINC001211202056   -0.0800
     13 C13        -8.8790   -2.1757   58.5165 C.ar    1  ZINC001211202056    0.0400
     14 C14        -9.3684   -3.5103   58.0161 C.3     1  ZINC001211202056    0.5300
     15 F15        -9.3029   -3.5369   56.6189 F       1  ZINC001211202056   -0.1700
     16 F16        -8.5645   -4.5282   58.5402 F       1  ZINC001211202056   -0.1600
     17 F17       -10.6922   -3.7046   58.4247 F       1  ZINC001211202056   -0.1700
     18 N18        -9.6767   -1.4244   59.2511 N.ar    1  ZINC001211202056   -0.4100
     19 C19        -9.2926   -0.2518   59.7161 C.ar    1  ZINC001211202056    0.1600
     20 Cl20      -10.3869    0.6920   60.6781 Cl      1  ZINC001211202056    0.0000
     21 C21        -5.7191    3.2125   57.3516 C.ar    1  ZINC001211202056    0.0400
     22 C22        -5.0166    3.0366   56.1749 C.ar    1  ZINC001211202056   -0.1400
     23 Cl23       -3.4551    3.7692   55.9771 Cl      1  ZINC001211202056   -0.0500
     24 H24        -3.9879    2.5123   53.8401 H       1  ZINC001211202056    0.4100
     25 H25        -5.2456    1.5772   53.2348 H       1  ZINC001211202056    0.4100
     26 H26        -7.2447    1.1081   54.5114 H       1  ZINC001211202056    0.1400
     27 H27        -8.4820    1.4190   56.6163 H       1  ZINC001211202056    0.1500
     28 H28        -7.2040    1.5517   60.7993 H       1  ZINC001211202056    0.4400
     29 H29        -6.1624   -0.1760   58.4301 H       1  ZINC001211202056    0.2000
     30 H30        -6.9558   -2.3792   57.5978 H       1  ZINC001211202056    0.1700
     31 H31        -5.2946    3.8024   58.1505 H       1  ZINC001211202056    0.1500
@<TRIPOS>BOND
     1     1     2    1
     2     1    24    1
     3     1    25    1
     4     2    22   ar
     5     2     3   ar
     6     3     4   ar
     7     3    26    1
     8     4     5   ar
     9     4    27    1
    10     5     6    1
    11     5    21   ar
    12     6     7    2
    13     6     8    2
    14     6     9   am
    15     9    10    1
    16     9    28    1
    17    10    19   ar
    18    10    11   ar
    19    11    12   ar
    20    11    29    1
    21    12    13   ar
    22    12    30    1
    23    13    14    1
    24    13    18   ar
    25    14    15    1
    26    14    16    1
    27    14    17    1
    28    18    19   ar
    29    19    20    1
    30    21    22   ar
    31    21    31    1
    32    22    23    1
@<TRIPOS>SUBSTRUCTURE
     1 ZINC001211202056        1 TEMP              0 ****  ****    0 ROOT


##########                                Name:    ZINC000482962466
##########                DOCK_Rotatable_Bonds:                   2
##########                         Heavy_Atoms:                  25
##########                    Molecular_Weight:             404.303
##########                DOCK_Rotatable_Bonds:                   2
##########                       Formal_Charge:           0.0200002
##########                     HBond_Acceptors:                   4
##########                        HBond_Donors:                   0
##########                         Heavy_Atoms:                  25
##########                          Grid_Score:          -21.521610
##########                     Grid_vdw_energy:          -20.729925
##########                      Grid_es_energy:           -0.791685
##########           Internal_energy_repulsive:            6.206830

@<TRIPOS>MOLECULE
ZINC000482962466
 47 50 1 0 0
SMALL
USER_CHARGES


@<TRIPOS>ATOM
      1 C1        -13.0131   -2.9818   59.6496 C.3     1  ZINC000482962466   -0.1400
      2 C2        -13.0517   -1.4964   59.2849 C.3     1  ZINC000482962466    0.0700
      3 H3        -12.0642   -1.1776   58.9514 H       1  ZINC000482962466    0.0700
      4 C4        -13.4664   -0.6780   60.5129 C.3     1  ZINC000482962466    0.0800
      5 N5        -13.6773    0.7163   60.0931 N.am    1  ZINC000482962466   -0.6100
      6 C6        -13.0943    1.7359   60.7541 C.2     1  ZINC000482962466    0.5600
      7 O7        -13.2809    2.8812   60.3916 O.2     1  ZINC000482962466   -0.5200
      8 C8        -12.2282    1.4618   61.9194 C.ar    1  ZINC000482962466   -0.1100
      9 C9        -12.7471    1.5903   63.2201 C.ar    1  ZINC000482962466   -0.0700
     10 C10       -11.9714    1.3439   64.3064 C.ar    1  ZINC000482962466   -0.1000
     11 C11       -10.6298    0.9544   64.1397 C.ar    1  ZINC000482962466   -0.0400
     12 C12        -9.8081    0.6940   65.2486 C.ar    1  ZINC000482962466   -0.0700
     13 C13        -8.5129    0.3182   65.0558 C.ar    1  ZINC000482962466   -0.0800
     14 Br14       -7.4119   -0.0314   66.5529 Br      1  ZINC000482962466   -0.0400
     15 C15        -7.9868    0.1870   63.7708 C.ar    1  ZINC000482962466   -0.1000
     16 C16        -8.7526    0.4312   62.6730 C.ar    1  ZINC000482962466   -0.0900
     17 C17       -10.0948    0.8209   62.8328 C.ar    1  ZINC000482962466   -0.0500
     18 C18       -10.9128    1.0745   61.7223 C.ar    1  ZINC000482962466   -0.0700
     19 C19       -14.5443    0.9646   58.9299 C.3     1  ZINC000482962466    0.0700
     20 C20       -14.0794    0.0650   57.7805 C.3     1  ZINC000482962466    0.0800
     21 C21       -15.0772    0.1586   56.6235 C.3     1  ZINC000482962466   -0.1100
     22 C22       -14.5619   -0.6810   55.4502 C.3     1  ZINC000482962466   -0.1500
     23 C23       -13.1654   -0.1915   55.0576 C.3     1  ZINC000482962466    0.0600
     24 O24       -12.2954   -0.2782   56.1879 O.3     1  ZINC000482962466   -0.3700
     25 C25       -12.7014    0.5238   57.2990 C.3     1  ZINC000482962466    0.0400
     26 O26       -14.0007   -1.2867   58.2361 O.3     1  ZINC000482962466   -0.3500
     27 H27       -12.7200   -3.5631   58.7755 H       1  ZINC000482962466    0.0700
     28 H28       -12.2908   -3.1406   60.4505 H       1  ZINC000482962466    0.0800
     29 H29       -14.0009   -3.2999   59.9830 H       1  ZINC000482962466    0.0700
     30 H30       -14.3909   -1.0805   60.9270 H       1  ZINC000482962466    0.0800
     31 H31       -12.6783   -0.7197   61.2649 H       1  ZINC000482962466    0.1000
     32 H32       -13.7759    1.8893   63.3564 H       1  ZINC000482962466    0.1400
     33 H33       -12.3841    1.4473   65.2991 H       1  ZINC000482962466    0.1400
     34 H34       -10.2011    0.7918   66.2498 H       1  ZINC000482962466    0.1400
     35 H35        -6.9567   -0.1125   63.6454 H       1  ZINC000482962466    0.1400
     36 H36        -8.3320    0.3263   61.6839 H       1  ZINC000482962466    0.1400
     37 H37       -10.5192    0.9730   60.7216 H       1  ZINC000482962466    0.1400
     38 H38       -15.5776    0.7295   59.1854 H       1  ZINC000482962466    0.0900
     39 H39       -14.4681    2.0103   58.6318 H       1  ZINC000482962466    0.1000
     40 H40       -16.0464   -0.2218   56.9461 H       1  ZINC000482962466    0.0800
     41 H41       -15.1775    1.1982   56.3116 H       1  ZINC000482962466    0.0800
     42 H42       -14.5106   -1.7286   55.7468 H       1  ZINC000482962466    0.0800
     43 H43       -15.2372   -0.5742   54.6014 H       1  ZINC000482962466    0.0800
     44 H44       -12.7762   -0.8127   54.2510 H       1  ZINC000482962466    0.1000
     45 H45       -13.2242    0.8441   54.7228 H       1  ZINC000482962466    0.0500
     46 H46       -12.7524    1.5689   56.9938 H       1  ZINC000482962466    0.0600
     47 H47       -11.9791    0.4161   58.1083 H       1  ZINC000482962466    0.1000
@<TRIPOS>BOND
     1     1     2    1
     2     1    27    1
     3     1    28    1
     4     1    29    1
     5     2     3    1
     6     2    26    1
     7     2     4    1
     8     4     5    1
     9     4    30    1
    10     4    31    1
    11     5     6   am
    12     5    19    1
    13     6     7    2
    14     6     8    1
    15     8    18   ar
    16     8     9   ar
    17     9    10   ar
    18     9    32    1
    19    10    11   ar
    20    10    33    1
    21    11    17   ar
    22    11    12   ar
    23    12    13   ar
    24    12    34    1
    25    13    14    1
    26    13    15   ar
    27    15    16   ar
    28    15    35    1
    29    16    17   ar
    30    16    36    1
    31    17    18   ar
    32    18    37    1
    33    19    20    1
    34    19    38    1
    35    19    39    1
    36    20    25    1
    37    20    21    1
    38    20    26    1
    39    21    22    1
    40    21    40    1
    41    21    41    1
    42    22    23    1
    43    22    42    1
    44    22    43    1
    45    23    24    1
    46    23    44    1
    47    23    45    1
    48    24    25    1
    49    25    46    1
    50    25    47    1
@<TRIPOS>SUBSTRUCTURE
     1 ZINC000482962466        1 TEMP              0 ****  ****    0 ROOT


##########                                Name:    ZINC000569288350
##########                DOCK_Rotatable_Bonds:                   3
##########                         Heavy_Atoms:                  19
##########                    Molecular_Weight:             393.559
##########                DOCK_Rotatable_Bonds:                   3
##########                       Formal_Charge:           0.0299999
##########                     HBond_Acceptors:                   5
##########                        HBond_Donors:                   1
##########                         Heavy_Atoms:                  19
##########                          Grid_Score:          -19.356907
##########                     Grid_vdw_energy:          -18.199642
##########                      Grid_es_energy:           -1.157265
##########           Internal_energy_repulsive:            4.762656

@<TRIPOS>MOLECULE
ZINC000569288350
 26 27 1 0 0
SMALL
USER_CHARGES


@<TRIPOS>ATOM
      1 O1        -12.9091   -2.0185   60.4371 O.2     1  ZINC000569288350   -0.4800
      2 C2        -13.1479   -1.4106   59.4114 C.2     1  ZINC000569288350    0.5700
      3 N3        -12.1719   -0.7100   58.8005 N.am    1  ZINC000569288350   -0.6600
      4 C4        -10.8855   -0.6776   59.3496 C.ar    1  ZINC000569288350    0.1800
      5 C5        -10.6416    0.0486   60.5076 C.ar    1  ZINC000569288350   -0.1200
      6 C6         -9.3707    0.0796   61.0485 C.ar    1  ZINC000569288350   -0.0600
      7 C7         -8.3404   -0.6110   60.4384 C.ar    1  ZINC000569288350   -0.1500
      8 C8         -8.5783   -1.3370   59.2830 C.ar    1  ZINC000569288350    0.1300
      9 F9         -7.5694   -2.0114   58.6893 F       1  ZINC000569288350   -0.1200
     10 C10        -9.8508   -1.3767   58.7401 C.ar    1  ZINC000569288350   -0.1000
     11 Cl11      -10.1504   -2.2867   57.2925 Cl      1  ZINC000569288350   -0.0400
     12 C12       -14.5052   -1.4449   58.8321 C.ar    1  ZINC000569288350   -0.1400
     13 C13       -15.3856   -0.3784   59.0408 C.ar    1  ZINC000569288350    0.1400
     14 F14       -14.9967    0.6880   59.7734 F       1  ZINC000569288350   -0.1200
     15 C15       -16.6555   -0.4189   58.4944 C.ar    1  ZINC000569288350   -0.1300
     16 C16       -17.0540   -1.5097   57.7447 C.ar    1  ZINC000569288350   -0.0600
     17 C17       -16.1874   -2.5685   57.5350 C.ar    1  ZINC000569288350   -0.0900
     18 C18       -14.9153   -2.5403   58.0675 C.ar    1  ZINC000569288350   -0.0500
     19 I19       -13.6073   -4.1453   57.7472 I       1  ZINC000569288350    0.0000
     20 H20       -12.3614   -0.2284   57.9802 H       1  ZINC000569288350    0.4200
     21 H21       -11.4452    0.5895   60.9854 H       1  ZINC000569288350    0.1600
     22 H22        -9.1818    0.6447   61.9493 H       1  ZINC000569288350    0.1500
     23 H23        -7.3478   -0.5842   60.8633 H       1  ZINC000569288350    0.1500
     24 H24       -17.3372    0.4034   58.6541 H       1  ZINC000569288350    0.1500
     25 H25       -18.0469   -1.5361   57.3206 H       1  ZINC000569288350    0.1500
     26 H26       -16.5066   -3.4172   56.9482 H       1  ZINC000569288350    0.1500
@<TRIPOS>BOND
     1     1     2    2
     2     2     3   am
     3     2    12    1
     4     3     4    1
     5     3    20    1
     6     4    10   ar
     7     4     5   ar
     8     5     6   ar
     9     5    21    1
    10     6     7   ar
    11     6    22    1
    12     7     8   ar
    13     7    23    1
    14     8     9    1
    15     8    10   ar
    16    10    11    1
    17    12    18   ar
    18    12    13   ar
    19    13    14    1
    20    13    15   ar
    21    15    16   ar
    22    15    24    1
    23    16    17   ar
    24    16    25    1
    25    17    18   ar
    26    17    26    1
    27    18    19    1
@<TRIPOS>SUBSTRUCTURE
     1 ZINC000569288350        1 TEMP              0 ****  ****    0 ROOT

